Auto-Transcript Start Time:  23:41:53, 03 Jun 2026 India Standard Time 
Current Directory: "D:\PBL\MT\electrolysis"

              Welcome to ANSYS Fluent 2026 R1

              Copyright 2026 Synopsys, Inc. and ANSYS, Inc. All rights reserved.
              Unauthorized use, distribution or duplication is prohibited.
              This product is subject to U.S. laws governing export and re-export.
              For full Legal Notice, see documentation.

Build Time: Feb  2 2026 16:32:00 EST  Build Id: 10262  
 
Connected License Server List:	<Non FlexNet Publisher License Server (FNPLS)>

     --------------------------------------------------------------
     This is a student version of ANSYS FLUENT. Usage of this product
     license is limited to the terms and conditions specified in your ANSYS
     license form, additional terms section.
     --------------------------------------------------------------
Host spawning Node 0 on machine "LAPTOP-C3N067TP" (win64).
Host waiting for connection from Node 0 at 127.0.0.1:61777 

Node 0 connecting to the Host ... connection established.

-----------------------------------------------------------------------------------------
ID    Hostname         Core  O.S.         PID    CPU Model Name                          
-----------------------------------------------------------------------------------------
n3    LAPTOP-C3N067TP  4/8  Windows-x64  25924  AMD Ryzen 5 5500H with Radeon Graphics  
n2    LAPTOP-C3N067TP  3/8  Windows-x64  3416   AMD Ryzen 5 5500H with Radeon Graphics  
n1    LAPTOP-C3N067TP  2/8  Windows-x64  18076  AMD Ryzen 5 5500H with Radeon Graphics  
n0*   LAPTOP-C3N067TP  1/8  Windows-x64  25088  AMD Ryzen 5 5500H with Radeon Graphics  
host  LAPTOP-C3N067TP       Windows-x64  7240   AMD Ryzen 5 5500H with Radeon Graphics  

MPI Option Selected: intel
Selected system interconnect: default
-----------------------------------------------------------------------------------------

Cleanup script file is D:\\PBL\\MT\\electrolysis\\cleanup-fluent-LAPTOP-C3N067TP-7240.bat
Multicore SMT processors detected. Processor affinity set!

Graphics driver currently in use: dx11


Posting ANSYS Product Improvement Program startup data
Done.

> (cx-gui-do cx-activate-item "MenuBar*ReadSubMenu*Mesh...")
(cx-gui-do cx-activate-item "MenuBar*ReadSubMenu*Case...")
(cx-gui-do cx-set-file-dialog-entries "Select File" '( "PBL.cas.h5") "CFF Case Files (*.cas.h5 *.msh.h5 *.MSH.h5 )")
Fast-loading "D:\Ansys\ANSYS Inc\ANSYS Student\v261\fluent\fluent26.1.0\\addons\afd\lib\hdfio.bin"
Done.

Reading from LAPTOP-C3N067TP:"D:/PBL/MT/electrolysis/PBL.cas.h5" in NODE0 mode ...
  Reading mesh ...
       75600 cells,     9 cell zones ...
           3000 hexahedral cells,  zone id: 76
           2700 hexahedral cells,  zone id: 77
           7200 hexahedral cells,  zone id: 78
           2700 hexahedral cells,  zone id: 79
          13500 hexahedral cells,  zone id: 80
           3000 hexahedral cells,  zone id: 81
          13500 hexahedral cells,  zone id: 82
          15000 hexahedral cells,  zone id: 83
          15000 hexahedral cells,  zone id: 84
      235740 faces,    50 face zones ...
            300 quadrilateral interior faces,  zone id: 110
            300 quadrilateral interior faces,  zone id: 104
            900 quadrilateral interior faces,  zone id: 96
            900 quadrilateral interior faces,  zone id: 4
            900 quadrilateral interior faces,  zone id: 3
            900 quadrilateral interior faces,  zone id: 2
           1000 quadrilateral wall faces,  zone id: 122
            300 quadrilateral wall faces,  zone id: 121
            300 quadrilateral wall faces,  zone id: 120
            300 quadrilateral wall faces,  zone id: 16
            300 quadrilateral wall faces,  zone id: 119
           1000 quadrilateral wall faces,  zone id: 118
            300 quadrilateral wall faces,  zone id: 117
            300 quadrilateral wall faces,  zone id: 116
            300 quadrilateral wall faces,  zone id: 15
            300 quadrilateral wall faces,  zone id: 115
            200 quadrilateral wall faces,  zone id: 114
            300 quadrilateral wall faces,  zone id: 113
            300 quadrilateral wall faces,  zone id: 112
            300 quadrilateral wall faces,  zone id: 14
            300 quadrilateral wall faces,  zone id: 111
            600 quadrilateral wall faces,  zone id: 109
            600 quadrilateral wall faces,  zone id: 13
           1800 quadrilateral wall faces,  zone id: 108
            360 quadrilateral wall faces,  zone id: 107
            960 quadrilateral wall faces,  zone id: 106
            360 quadrilateral wall faces,  zone id: 105
           1800 quadrilateral wall faces,  zone id: 103
            300 quadrilateral wall faces,  zone id: 102
            300 quadrilateral wall faces,  zone id: 11
            100 quadrilateral wall faces,  zone id: 101
            100 quadrilateral pressure-outlet faces,  zone id: 100
            100 quadrilateral mass-flow-inlet faces,  zone id: 95
            100 quadrilateral pressure-outlet faces,  zone id: 94
          42700 quadrilateral interior faces,  zone id: 93
          38700 quadrilateral interior faces,  zone id: 91
           8300 quadrilateral interior faces,  zone id: 90
          38700 quadrilateral interior faces,  zone id: 89
           7020 quadrilateral interior faces,  zone id: 88
          20220 quadrilateral interior faces,  zone id: 87
           7020 quadrilateral interior faces,  zone id: 86
           8300 quadrilateral interior faces,  zone id: 85
            200 quadrilateral wall faces,  zone id: 12
          42700 quadrilateral interior faces,  zone id: 10
           1000 quadrilateral wall faces,  zone id: 9
           1000 quadrilateral wall faces,  zone id: 7
            600 quadrilateral wall faces,  zone id: 6
            600 quadrilateral wall faces,  zone id: 8
            600 quadrilateral wall faces,  zone id: 5
            600 quadrilateral wall faces,  zone id: 1
       84294 nodes,     1 node zone  ...
  Done.


Building...
     mesh
	distributing mesh
		pairs....,
		parts....,
		faces....,
		nodes....,
		shadow nodes....,
		cells....,
        bandwidth reduction using Reverse Cuthill-McKee: 3290/141 = 23.3333
     materials,
     interface,
     domains,
	mixture
	phase-1
	phase-2
	interaction
     zones,
	cathode_cc  (phase-2)
	cathode_cc  (phase-1)
	anode_cc  (phase-2)
	anode_cc  (phase-1)
	anode_pl  (phase-2)
	anode_pl  (phase-1)
	cathode_fc  (phase-2)
	cathode_fc  (phase-1)
	cathode_pl  (phase-2)
	cathode_pl  (phase-1)
	cathode_cl  (phase-2)
	cathode_cl  (phase-1)
	mem  (phase-2)
	mem  (phase-1)
	anode_cl  (phase-2)
	anode_cl  (phase-1)
	anode_fc  (phase-2)
	anode_fc  (phase-1)
	wall-120-shadow  (phase-2)
	wall-120-shadow  (phase-1)
	wall-116-shadow  (phase-2)
	wall-116-shadow  (phase-1)
	wall-112-shadow  (phase-2)
	wall-112-shadow  (phase-1)
	wall-109-shadow  (phase-2)
	wall-109-shadow  (phase-1)
	wall-102-shadow  (phase-2)
	wall-102-shadow  (phase-1)
	wall-6-shadow  (phase-2)
	wall-6-shadow  (phase-1)
	wall-5-shadow  (phase-2)
	wall-5-shadow  (phase-1)
	wall_anode_pl:005  (phase-2)
	wall_anode_pl:005  (phase-1)
	wall_cathode_pl:006  (phase-2)
	wall_cathode_pl:006  (phase-1)
	anode_cc1:007  (phase-2)
	anode_cc1:007  (phase-1)
	anode_cc3:009  (phase-2)
	anode_cc3:009  (phase-1)
	anode_cc3:010  (phase-2)
	anode_cc3:010  (phase-1)
	cathode_cc2:012  (phase-2)
	cathode_cc2:012  (phase-1)
	interior-anode_fc  (phase-2)
	interior-anode_fc  (phase-1)
	interior-anode_cl  (phase-2)
	interior-anode_cl  (phase-1)
	interior-mem  (phase-2)
	interior-mem  (phase-1)
	interior-cathode_cl  (phase-2)
	interior-cathode_cl  (phase-1)
	interior-cathode_pl  (phase-2)
	interior-cathode_pl  (phase-1)
	interior-cathode_fc  (phase-2)
	interior-cathode_fc  (phase-1)
	interior-anode_pl  (phase-2)
	interior-anode_pl  (phase-1)
	interior-cathode_cc  (phase-2)
	interior-cathode_cc  (phase-1)
	anode_out  (phase-2)
	anode_out  (phase-1)
	anode_in  (phase-2)
	anode_in  (phase-1)
	cathode_out  (phase-2)
	cathode_out  (phase-1)
	cathode_in  (phase-2)
	cathode_in  (phase-1)
	wall_anode_fc.1  (phase-2)
	wall_anode_fc.1  (phase-1)
	wall_anode_pl  (phase-2)
	wall_anode_pl  (phase-1)
	wall_anode_cl  (phase-2)
	wall_anode_cl  (phase-1)
	wall_mem  (phase-2)
	wall_mem  (phase-1)
	wall_cathode_cl  (phase-2)
	wall_cathode_cl  (phase-1)
	wall_cathode_pl.1  (phase-2)
	wall_cathode_pl.1  (phase-1)
	wall_cathode_fc  (phase-2)
	wall_cathode_fc  (phase-1)
	anode_tab.1.1  (phase-2)
	anode_tab.1.1  (phase-1)
	anode_cc1  (phase-2)
	anode_cc1  (phase-1)
	anode_tab.1  (phase-2)
	anode_tab.1  (phase-1)
	anode_cc2  (phase-2)
	anode_cc2  (phase-1)
	anode_tab  (phase-2)
	anode_tab  (phase-1)
	anode_cc3  (phase-2)
	anode_cc3  (phase-1)
	cathode_tab.1.1  (phase-2)
	cathode_tab.1.1  (phase-1)
	cathode_cc1  (phase-2)
	cathode_cc1  (phase-1)
	cathode_tab.1  (phase-2)
	cathode_tab.1  (phase-1)
	cathode_cc2  (phase-2)
	cathode_cc2  (phase-1)
	cathode_tab  (phase-2)
	cathode_tab  (phase-1)
	cathode_cc3  (phase-2)
	cathode_cc3  (phase-1)
	int:002  (phase-2)
	int:002  (phase-1)
	int:003  (phase-2)
	int:003  (phase-1)
	int:004  (phase-2)
	int:004  (phase-1)
	int  (phase-2)
	int  (phase-1)
	wall_anode_fc  (phase-2)
	wall_anode_fc  (phase-1)
	wall_cathode_pl  (phase-2)
	wall_cathode_pl  (phase-1)
	wall_cathode_pl
	wall_anode_fc
	int
	int:004
	int:003
	int:002
	cathode_cc3
	cathode_tab
	cathode_cc2
	cathode_tab.1
	cathode_cc1
	cathode_tab.1.1
	anode_cc3
	anode_tab
	anode_cc2
	anode_tab.1
	anode_cc1
	anode_tab.1.1
	wall_cathode_fc
	wall_cathode_pl.1
	wall_cathode_cl
	wall_mem
	wall_anode_cl
	wall_anode_pl
	wall_anode_fc.1
	cathode_in
	cathode_out
	anode_in
	anode_out
	interior-cathode_cc
	interior-anode_pl
	interior-cathode_fc
	interior-cathode_pl
	interior-cathode_cl
	interior-mem
	interior-anode_cl
	interior-anode_fc
	cathode_cc2:012
	anode_cc3:010
	anode_cc3:009
	anode_cc1:007
	wall_cathode_pl:006
	wall_anode_pl:005
	wall-5-shadow
	wall-6-shadow
	wall-102-shadow
	wall-109-shadow
	wall-112-shadow
	wall-116-shadow
	wall-120-shadow
	anode_fc
	anode_cl
	mem
	cathode_cl
	cathode_pl
	cathode_fc
	anode_pl
	anode_cc
	cathode_cc
     parallel,
Done.

Partition interfaces are not going through highly stretched area, no repartitioning needed.
(cx-gui-do cx-activate-item "Ribbon*Frame1*Frame2(Domain)*Table1*Table3(Mesh)*PushButton1(Display)")
(cx-gui-do cx-activate-item "Mesh Display*PanelButtons*PushButton1(OK)")
(cx-gui-do cx-activate-item "Mesh Display*PanelButtons*PushButton2(Cancel)")
(cx-use-window-id 51)
(cx-use-window-id 51)
(cx-gui-do cx-activate-item "Ribbon*Frame1*Frame6(Results)*Table1*Table3(Graphics)*PushButton8(Dashboard)")
(cx-gui-do cx-activate-item "Dashboard Definition*PanelButtons*PushButton2(Cancel)")
(cx-gui-do cx-activate-item "Ribbon*Frame1*Frame6(Results)*Table1*Table3(Plots)*PushButton5(Profile Data)")
(cx-gui-do cx-activate-item "Plot Profile Data*PanelButtons*PushButton2(Cancel)")
(cx-gui-do cx-activate-item "Ribbon*Frame1*Frame6(Results)*Table1*Table3(Reports)*PushButton1(Reference Values)")
(cx-gui-do cx-activate-item "MenuBar*ExportSubMenu*Solution Data...")
(cx-gui-do cx-set-list-selections "Export*Table1*Table2*Table2*List1(Cell Zones)" '( 3))
(cx-gui-do cx-activate-item "Export*Table1*Table2*Table2*List1(Cell Zones)")
(cx-gui-do cx-set-list-selections "Export*Table1*Table2*Table2*List1(Cell Zones)" '( 0 3))
(cx-gui-do cx-activate-item "Export*Table1*Table2*Table2*List1(Cell Zones)")
(cx-gui-do cx-set-list-selections "Export*Table1*Table2*Table2*List1(Cell Zones)" '( 0 1 2 3 4 5 6 7 8))
(cx-gui-do cx-activate-item "Export*Table1*Table2*Table2*List1(Cell Zones)")
(cx-gui-do cx-set-list-selections "Export*Table1*Table2*Table4*List1(Quantities)" '( 81))
(cx-gui-do cx-activate-item "Export*Table1*Table2*Table4*List1(Quantities)")
(cx-gui-do cx-set-list-selections "Export*Table1*Table2*Table4*List1(Quantities)" '( 81 84 83 88 86 85 87 82 7 134 185 8 135 186 132 119 120 123 126 121 124 127 122 125 128 129 130 131 94 93 108 92 114 113 115 116 102 103 111 109 100 117 107 96 104 106 105 101 112 95 110 97 89 98 90 99 91 177 195 58 55 51 174 192 52 175 193 59 54 57 53 60 56 176 194 61 62 63 3 2 6 133 184 1 5 0 4 69 70 183 68 182 200 64 178 196 65 179 197 67 181 199 66 180 198 118 170 169 172 171 166 165 168 167 162 161 164 163 154 150 153 149 156 152 155 151 142 141 144 143 158 157 160 159 146 145 148 147 173 39 136 187 48 50 140 191 46 40 41 37 49 139 190 45 137 188 47 138 189 38 43 42 44 13 33 29 36 23 24 25 34 35 14 20 21 22 27 16 17 18 19 15 26 9 28 10 30 11 31 12 32 75 77 79 80 76 78 71 72 73 74))
(cx-gui-do cx-activate-item "Export*Table1*Table2*Table4*List1(Quantities)")
(cx-gui-do cx-set-list-selections "Export*Table1*Table2*Table4*List1(Quantities)" '( 81 84 83 88 86 85 87 82 7 134 185 8 135 186 132 119 120 123 126 121 124 127 122 125 128 129 130 131 94 93 108 92 114 113 115 116 102 103 111 109 100 117 107 96 104 106 105 101 112 95 110 97 89 98 90 99 91 177 195 58 55 51 174 192 52 175 193 59 54 57 53 60 56 176 194 61 62 63 3 2 6 133 184 1 5 0 4 69 70 183 68 182 200 64 178 196 65 179 197 67 181 199 66 180 198 118 170 169 172 171 166 165 168 167 162 161 164 163 154 150 153 149 156 152 155 151 142 141 144 143 158 157 160 159 146 145 148 147 173 39 136 187 48 50 140 191 46 40 41 37 49 139 190 45 137 188 47 138 189 38 43 42 44 13 33 29 36 23 24 25 34 35 14 20 21 22 27 16 17 18 19 15 26 9 28 10 30 11 31 12 32 75 77 79 80 76 78 71 72 73 74))
(cx-gui-do cx-activate-item "Export*Table1*Table2*Table4*List1(Quantities)")
(cx-gui-do cx-set-list-selections "Export*Table1*Table2*Table4*List1(Quantities)" '( 81 84 83 88 86 85 87 82 7 134 185 8 135 186 132 119 120 123 126 121 124 127 122 125 128 129 130 131 94 93 108 92 114 113 115 116 102 103 111 109 100 117 107 96 104 106 105 101 112 95 110 97 89 98 90 99 91 177 195 58 55 51 174 192 52 175 193 59 54 57 53 60 56 176 194 61 62 63 3 2 6 133 184 1 5 0 4 69 70 183 68 182 200 64 178 196 65 179 197 67 181 199 66 180 198 118 170 169 172 171 166 165 168 167 162 161 164 163 154 150 153 149 156 152 155 151 142 141 144 143 158 157 160 159 146 145 148 147 173 39 136 187 48 50 140 191 46 40 41 37 49 139 190 45 137 188 47 138 189 38 43 42 44 13 33 29 36 23 24 25 34 35 14 20 21 22 27 16 17 18 19 15 26 9 28 10 30 11 31 12 32 75 77 79 80 76 78 71 72 73 74))
(cx-gui-do cx-activate-item "Export*Table1*Table2*Table4*List1(Quantities)")
(cx-gui-do cx-activate-item "Export*PanelButtons*PushButton1(OK)")
(cx-gui-do cx-set-file-dialog-entries "Select File" '( "PBL") "CGNS Files ()")

Opening library "D:\\Ansys\\ANSYS Inc\\ANSYS Student\\v261\\fluent\\fluent26.1.0\\ceetron_sam\\win64\\CeetronSAM.dll"... done.


Writing "D:/PBL/MT/electrolysis/PBL.cgns"
   84294 nodes written.
   93480 elements written.
      35 node sets written.
         cell-partition-active is written as result for 84294 nodes
         cell-element-type is written as result for 84294 nodes
         cell-id is written as result for 84294 nodes
         cell-weight is written as result for 84294 nodes
         cell-zone is written as result for 84294 nodes
         cell-type is written as result for 84294 nodes
         partition-neighbors is written as result for 84294 nodes
         cell-partition-stored is written as result for 84294 nodes

Error at Node 0: density data not available


Error at Node 1: density data not available


Error at Node 2: density data not available


Error at Node 3: density data not available

(cx-gui-do cx-activate-item "Export*PanelButtons*PushButton2(Cancel)")
(cx-gui-do cx-activate-item "MenuBar*ExportSubMenu*Solution Data...")
(cx-gui-do cx-set-list-selections "Export*Table1*Table1*DropDownList2(File Type)" '( 1))
(cx-gui-do cx-activate-item "Export*Table1*Table1*DropDownList2(File Type)")
(cx-gui-do cx-set-list-selections "Export*Table1*Table2*Table3*List1(Surfaces)" '( 10))
(cx-gui-do cx-activate-item "Export*Table1*Table2*Table3*List1(Surfaces)")
(cx-gui-do cx-set-list-selections "Export*Table1*Table2*Table3*List1(Surfaces)" '( 10 11 14 26 27 30))
(cx-gui-do cx-activate-item "Export*Table1*Table2*Table3*List1(Surfaces)")
(cx-gui-do cx-set-list-selections "Export*Table1*Table2*Table3*List1(Surfaces)" '( 10 11 14 26 27 30))
(cx-gui-do cx-activate-item "Export*Table1*Table2*Table3*List1(Surfaces)")
(cx-gui-do cx-set-list-selections "Export*Table1*Table2*Table3*List1(Surfaces)" '( 10 11 14 26 27 30))
(cx-gui-do cx-activate-item "Export*Table1*Table2*Table3*List1(Surfaces)")
(cx-gui-do cx-set-list-selections "Export*Table1*Table2*Table3*List1(Surfaces)" '( 10 11 14 26 27 30 38))
(cx-gui-do cx-activate-item "Export*Table1*Table2*Table3*List1(Surfaces)")
(cx-gui-do cx-set-list-selections "Export*Table1*Table2*Table3*List1(Surfaces)" '( 10 11 14 26 27 30 38))
(cx-gui-do cx-activate-item "Export*Table1*Table2*Table3*List1(Surfaces)")
(cx-gui-do cx-set-list-selections "Export*Table1*Table2*Table3*List1(Surfaces)" '( 10 11 14 26 27 30 38))
(cx-gui-do cx-activate-item "Export*Table1*Table2*Table3*List1(Surfaces)")
(cx-gui-do cx-set-list-selections "Export*Table1*Table2*Table3*List1(Surfaces)" '( 10 11 14 26 27 30 38 12))
(cx-gui-do cx-activate-item "Export*Table1*Table2*Table3*List1(Surfaces)")
(cx-gui-do cx-set-list-selections "Export*Table1*Table2*Table3*List1(Surfaces)" '( 10 11 14 26 27 30 38 12 9 34 35 36 37 47 53 57))
(cx-gui-do cx-activate-item "Export*Table1*Table2*Table3*List1(Surfaces)")
(cx-gui-do cx-set-list-selections "Export*Table1*Table2*Table3*List1(Surfaces)" '( 10 11 14 26 27 30 38 12 9 34 35 36 37 47 53 57))
(cx-gui-do cx-activate-item "Export*Table1*Table2*Table3*List1(Surfaces)")
(cx-gui-do cx-set-list-selections "Export*Table1*Table2*Table3*List1(Surfaces)" '( 10 11 14 26 27 30 38 12 9 34 35 36 37 47 53 57))
(cx-gui-do cx-activate-item "Export*Table1*Table2*Table3*List1(Surfaces)")
(cx-gui-do cx-set-list-selections "Export*Table1*Table2*Table3*List1(Surfaces)" '( 10 11 14 26 27 30 38 12 9 34 35 36 37 47 53 57))
(cx-gui-do cx-activate-item "Export*Table1*Table2*Table3*List1(Surfaces)")
(cx-gui-do cx-set-list-selections "Export*Table1*Table2*Table3*List1(Surfaces)" '( 10 11 14 26 27 30 38 12 9 34 35 36 37 47 53 57))
(cx-gui-do cx-activate-item "Export*Table1*Table2*Table3*List1(Surfaces)")
(cx-gui-do cx-set-list-selections "Export*Table1*Table2*Table3*List1(Surfaces)" '( 10 11 14 26 27 30 38 9 34 35 36 37 47 53 57 12))
(cx-gui-do cx-activate-item "Export*Table1*Table2*Table3*List1(Surfaces)")
(cx-gui-do cx-set-list-selections "Export*Table1*Table2*Table3*List1(Surfaces)" '( 10 11 14 26 27 30 38 9 34 35 36 37 47 53 57 12))
(cx-gui-do cx-activate-item "Export*Table1*Table2*Table3*List1(Surfaces)")
(cx-gui-do cx-set-list-selections "Export*Table1*Table2*Table3*List1(Surfaces)" '( 10 11 14 26 27 30 38 9 34 35 36 37 47 53 57 12))
(cx-gui-do cx-activate-item "Export*Table1*Table2*Table3*List1(Surfaces)")
(cx-gui-do cx-set-list-selections "Export*Table1*Table2*Table3*List1(Surfaces)" '( 10 11 14 26 27 30 9 34 35 36 37 47 53 57 38 12))
(cx-gui-do cx-activate-item "Export*Table1*Table2*Table3*List1(Surfaces)")
(cx-gui-do cx-set-list-selections "Export*Table1*Table2*Table3*List1(Surfaces)" '( 10 11 14 26 27 30 9 34 35 36 37 47 53 57 38 12))
(cx-gui-do cx-activate-item "Export*Table1*Table2*Table3*List1(Surfaces)")
(cx-gui-do cx-set-list-selections "Export*Table1*Table2*Table3*List1(Surfaces)" '( 10 11 14 26 27 30 9 34 35 36 37 47 53 57 38 12))
(cx-gui-do cx-activate-item "Export*Table1*Table2*Table3*List1(Surfaces)")
(cx-gui-do cx-set-list-selections "Export*Table1*Table2*Table3*List1(Surfaces)" '( 10 11 14 26 30 9 34 35 36 37 47 53 57 38 12))
(cx-gui-do cx-activate-item "Export*Table1*Table2*Table3*List1(Surfaces)")
(cx-gui-do cx-set-list-selections "Export*Table1*Table2*Table3*List1(Surfaces)" '( 10 11 14 26 30 9 34 35 36 37 47 53 57 38 12 27))
(cx-gui-do cx-activate-item "Export*Table1*Table2*Table3*List1(Surfaces)")
(cx-gui-do cx-set-list-selections "Export*Table1*Table2*Table3*List1(Surfaces)" '( 11 14 26 30 9 34 35 36 37 47 53 57 38 12 27))
(cx-gui-do cx-activate-item "Export*Table1*Table2*Table3*List1(Surfaces)")
(cx-gui-do cx-set-list-selections "Export*Table1*Table2*Table3*List1(Surfaces)" '( 11 14 26 30 57 38 12 27))
(cx-gui-do cx-activate-item "Export*Table1*Table2*Table3*List1(Surfaces)")
(cx-gui-do cx-set-list-selections "Export*Table1*Table2*Table3*List1(Surfaces)" '( 57))
(cx-gui-do cx-activate-item "Export*Table1*Table2*Table3*List1(Surfaces)")
(cx-gui-do cx-set-list-selections "Export*Table1*Table2*Table3*List1(Surfaces)" '( 57))
(cx-gui-do cx-activate-item "Export*Table1*Table2*Table3*List1(Surfaces)")
(cx-gui-do cx-set-list-selections "Export*Table1*Table2*Table3*List1(Surfaces)" '( 57))
(cx-gui-do cx-activate-item "Export*Table1*Table2*Table3*List1(Surfaces)")
(cx-gui-do cx-set-list-selections "Export*Table1*Table2*Table3*List1(Surfaces)" '( 57 10 11 14 26 27 30 38))
(cx-gui-do cx-activate-item "Export*Table1*Table2*Table3*List1(Surfaces)")
(cx-gui-do cx-set-list-selections "Export*Table1*Table2*Table3*List1(Surfaces)" '( 57 10 11 14 26 27 30 38 12))
(cx-gui-do cx-activate-item "Export*Table1*Table2*Table3*List1(Surfaces)")
(cx-gui-do cx-set-list-selections "Export*Table1*Table2*Table3*List1(Surfaces)" '( 57 10 11 14 26 27 30 38 12 53))
(cx-gui-do cx-activate-item "Export*Table1*Table2*Table3*List1(Surfaces)")
(cx-gui-do cx-set-list-selections "Export*Table1*Table2*Table3*List1(Surfaces)" '( 57 10 11 14 26 27 30 38 12))
(cx-gui-do cx-activate-item "Export*Table1*Table2*Table3*List1(Surfaces)")
(cx-gui-do cx-set-list-selections "Export*Table1*Table2*Table3*List1(Surfaces)" '( 10 11 14 26 27 30 38 12 57 58 59 60))
(cx-gui-do cx-activate-item "Export*Table1*Table2*Table3*List1(Surfaces)")
(cx-gui-do cx-set-list-selections "Export*Table1*Table2*Table3*List1(Surfaces)" '( 10 11 14 26 27 30 38 12 57 58 59 60 13 29))
(cx-gui-do cx-activate-item "Export*Table1*Table2*Table3*List1(Surfaces)")
(cx-gui-do cx-set-list-selections "Export*Table1*Table2*Table3*List1(Surfaces)" '( 10 11 14 26 27 30 38 12 57 58 59 60 13 29 0 18))
(cx-gui-do cx-activate-item "Export*Table1*Table2*Table3*List1(Surfaces)")
(cx-gui-do cx-set-list-selections "Export*Table1*Table2*Table4*List1(Quantities)" '( 81 84 83 88 86 85 87 82))
(cx-gui-do cx-activate-item "Export*Table1*Table2*Table4*List1(Quantities)")
(cx-gui-do cx-set-list-selections "Export*Table1*Table2*Table4*List1(Quantities)" '( 81 84 83 88 86 85 87 82 94 93 108 92 114 113 115 116 102 103 111 109 100 117 107 96 104 106 105 101 112 95 110 97 89 98 90 99 91))
(cx-gui-do cx-activate-item "Export*Table1*Table2*Table4*List1(Quantities)")
(cx-gui-do cx-set-list-selections "Export*Table1*Table2*Table4*List1(Quantities)" '( 81 84 83 88 86 85 87 82 94 93 108 92 114 113 115 116 102 103 111 109 100 117 107 96 104 106 105 101 112 95 110 97 89 98 90 99 91 132 119 120 123 126 121 124 127 122 125 128 129 130 131))
(cx-gui-do cx-activate-item "Export*Table1*Table2*Table4*List1(Quantities)")
(cx-gui-do cx-set-list-selections "Export*Table1*Table2*Table4*List1(Quantities)" '( 81 84 83 88 86 85 87 82 94 93 108 92 114 113 115 116 102 103 111 109 100 117 107 96 104 106 105 101 112 95 110 97 89 98 90 99 91 132 119 120 123 126 121 124 127 122 125 128 129 130 131 177 195))
(cx-gui-do cx-activate-item "Export*Table1*Table2*Table4*List1(Quantities)")
(cx-gui-do cx-set-list-selections "Export*Table1*Table2*Table4*List1(Quantities)" '( 81 84 83 88 86 85 87 82 94 93 108 92 114 113 115 116 102 103 111 109 100 117 107 96 104 106 105 101 112 95 110 97 89 98 90 99 91 132 119 120 123 126 121 124 127 122 125 128 129 130 131 177 195 58 55 51 174 192 52 175 193 59 54 57 53 60 56 176 194 61 62 63))
(cx-gui-do cx-activate-item "Export*Table1*Table2*Table4*List1(Quantities)")
(cx-gui-do cx-set-list-selections "Export*Table1*Table2*Table4*List1(Quantities)" '( 81 84 83 88 86 85 87 82 94 93 108 92 114 113 115 116 102 103 111 109 100 117 107 96 104 106 105 101 112 95 110 97 89 98 90 99 91 132 119 120 123 126 121 124 127 122 125 128 129 130 131 177 195 58 55 51 174 192 52 175 193 59 54 57 53 60 56 176 194 61 62 63 3 2 6 133 184 1 5 0 4))
(cx-gui-do cx-activate-item "Export*Table1*Table2*Table4*List1(Quantities)")
(cx-gui-do cx-set-list-selections "Export*Table1*Table2*Table4*List1(Quantities)" '( 81 84 83 88 86 85 87 82 94 93 108 92 114 113 115 116 102 103 111 109 100 117 107 96 104 106 105 101 112 95 110 97 89 98 90 99 91 132 119 120 123 126 121 124 127 122 125 128 129 130 131 177 195 58 55 51 174 192 52 175 193 59 54 57 53 60 56 176 194 61 62 63 3 2 6 133 184 1 5 0 4 69 70 183 68 182 200 64 178 196 65 179 197 67 181 199 66 180 198))
(cx-gui-do cx-activate-item "Export*Table1*Table2*Table4*List1(Quantities)")
(cx-gui-do cx-set-list-selections "Export*Table1*Table2*Table4*List1(Quantities)" '( 81 84 83 88 86 85 87 82 94 93 108 92 114 113 115 116 102 103 111 109 100 117 107 96 104 106 105 101 112 95 110 97 89 98 90 99 91 132 119 120 123 126 121 124 127 122 125 128 129 130 131 177 195 58 55 51 174 192 52 175 193 59 54 57 53 60 56 176 194 61 62 63 3 2 6 133 184 1 5 0 4 69 70 183 68 182 200 64 178 196 65 179 197 67 181 199 66 180 198 170 169 172 171 166 165 168 167 162 161 164 163 154 150 153 149 156 152 155 151 142 141 144 143 158 157 160 159 146 145 148 147 173))
(cx-gui-do cx-activate-item "Export*Table1*Table2*Table4*List1(Quantities)")
(cx-gui-do cx-set-list-selections "Export*Table1*Table2*Table4*List1(Quantities)" '( 81 84 83 88 86 85 87 82 94 93 108 92 114 113 115 116 102 103 111 109 100 117 107 96 104 106 105 101 112 95 110 97 89 98 90 99 91 132 119 120 123 126 121 124 127 122 125 128 129 130 131 177 195 58 55 51 174 192 52 175 193 59 54 57 53 60 56 176 194 61 62 63 3 2 6 133 184 1 5 0 4 69 70 183 68 182 200 64 178 196 65 179 197 67 181 199 66 180 198 170 169 172 171 166 165 168 167 162 161 164 163 154 150 153 149 156 152 155 151 142 141 144 143 158 157 160 159 146 145 148 147 173 39 136 187 48 50 140 191 46 40 41 37 49 139 190 45 137 188 47 138 189 38 43 42 44))
(cx-gui-do cx-activate-item "Export*Table1*Table2*Table4*List1(Quantities)")
(cx-gui-do cx-activate-item "Export*PanelButtons*PushButton1(OK)")
(cx-gui-do cx-set-file-dialog-entries "Select File" '( "PBL") "ASCII Files ()")
Writing "D:/PBL/MT/electrolysis/PBL"...

Error at Node 1: Export_data: data must be initialized.

Error at Node 0: Export_data: data must be initialized.

Error at Node 2: Export_data: data must be initialized.

Error at Node 3: Export_data: data must be initialized.

Error: Error writing "D:/PBL/MT/electrolysis/PBL".
Error Object: #f
(cx-gui-do cx-activate-item "Error*OK")
(cx-gui-do cx-activate-item "Export*PanelButtons*PushButton2(Cancel)")
(cx-gui-do cx-activate-item "MenuBar*ExportSubMenu*Solution Data...")
(cx-gui-do cx-set-list-selections "Export*Table1*Table1*DropDownList2(File Type)" '( 1))
(cx-gui-do cx-activate-item "Export*Table1*Table1*DropDownList2(File Type)")
(cx-gui-do cx-set-list-selections "Export*Table1*Table2*Table4*List1(Quantities)" '( 81 84 83 88 86 85 87 82))
(cx-gui-do cx-activate-item "Export*Table1*Table2*Table4*List1(Quantities)")
(cx-gui-do cx-set-list-selections "Export*Table1*Table2*Table4*List1(Quantities)" '())
(cx-gui-do cx-activate-item "Export*Table1*Table2*Table4*List1(Quantities)")
(cx-gui-do cx-set-list-selections "Export*Table1*Table2*Table4*List1(Quantities)" '( 177 195))
(cx-gui-do cx-activate-item "Export*Table1*Table2*Table4*List1(Quantities)")
(cx-gui-do cx-set-list-selections "Export*Table1*Table2*Table4*List1(Quantities)" '( 177 195 58 55 51 174 192 52 175 193 59 54 57 53 60 56 176 194 61 62 63))
(cx-gui-do cx-activate-item "Export*Table1*Table2*Table4*List1(Quantities)")
(cx-gui-do cx-set-list-selections "Export*Table1*Table2*Table4*List1(Quantities)" '( 177 195 58 55 51 174 192 52 175 193 59 54 57 53 60 56 176 194 61 62 63))
(cx-gui-do cx-activate-item "Export*Table1*Table2*Table4*List1(Quantities)")
(cx-gui-do cx-set-list-selections "Export*Table1*Table2*Table4*List1(Quantities)" '( 177 195 58 55 51 174 192 52 175 193 59 54 57 53 60 56 176 194 61 62 63))
(cx-gui-do cx-activate-item "Export*Table1*Table2*Table4*List1(Quantities)")
(cx-gui-do cx-set-list-selections "Export*Table1*Table2*Table4*List1(Quantities)" '( 177 195 58 55 51 174 192 52 175 193 59 54 57 53 60 56 176 194 61 62 63 132 119 120 123 126 121 124 127 122 125 128 129 130 131))
(cx-gui-do cx-activate-item "Export*Table1*Table2*Table4*List1(Quantities)")
(cx-gui-do cx-set-list-selections "Export*Table1*Table2*Table4*List1(Quantities)" '( 177 195 58 55 51 174 192 52 175 193 59 54 57 53 60 56 176 194 61 62 63 132 119 120 123 126 121 124 127 122 125 128 129 130 131 3 2 6 133 184 1 5 0 4))
(cx-gui-do cx-activate-item "Export*Table1*Table2*Table4*List1(Quantities)")
(cx-gui-do cx-set-list-selections "Export*Table1*Table2*Table4*List1(Quantities)" '( 177 195 58 55 51 174 192 52 175 193 59 54 57 53 60 56 176 194 61 62 63 132 119 120 123 126 121 124 127 122 125 128 129 130 131 3 2 6 133 184 1 5 0 4 69 70 183 68 182 200 64 178 196 65 179 197 67 181 199 66 180 198))
(cx-gui-do cx-activate-item "Export*Table1*Table2*Table4*List1(Quantities)")
(cx-gui-do cx-set-list-selections "Export*Table1*Table2*Table4*List1(Quantities)" '( 177 195 58 55 51 174 192 52 175 193 59 54 57 53 60 56 176 194 61 62 63 132 119 120 123 126 121 124 127 122 125 128 129 130 131 3 2 6 133 184 1 5 0 4 69 70 183 68 182 200 64 178 196 65 179 197 67 181 199 66 180 198 170 169 172 171 166 165 168 167 162 161 164 163 154 150 153 149 156 152 155 151 142 141 144 143 158 157 160 159 146 145 148 147 173))
(cx-gui-do cx-activate-item "Export*Table1*Table2*Table4*List1(Quantities)")
(cx-gui-do cx-set-list-selections "Export*Table1*Table2*Table4*List1(Quantities)" '( 177 195 58 55 51 174 192 52 175 193 59 54 57 53 60 56 176 194 61 62 63 132 119 120 123 126 121 124 127 122 125 128 129 130 131 3 2 6 133 184 1 5 0 4 69 70 183 68 182 200 64 178 196 65 179 197 67 181 199 66 180 198 170 169 172 171 166 165 168 167 162 161 164 163 154 150 153 149 156 152 155 151 142 141 144 143 158 157 160 159 146 145 148 147 173 39 136 187 48 50 140 191 46 40 41 37 49 139 190 45 137 188 47 138 189 38 43 42 44))
(cx-gui-do cx-activate-item "Export*Table1*Table2*Table4*List1(Quantities)")
(cx-gui-do cx-activate-item "Export*PanelButtons*PushButton1(OK)")
(cx-gui-do cx-set-file-dialog-entries "Select File" '( "PBL data") "ASCII Files ()")
Writing "D:/PBL/MT/electrolysis/PBL data"...

Error at Node 0: Export_data: data must be initialized.

Error at Node 3: Export_data: data must be initialized.

Error at Node 1: Export_data: data must be initialized.

Error at Node 2: Export_data: data must be initialized.

Error: Error writing "D:/PBL/MT/electrolysis/PBL data".
Error Object: #f
(cx-gui-do cx-activate-item "Error*OK")
(cx-gui-do cx-set-toggle-button2 "Export*Table1*Table2*Table1*ToggleBox4(Location)*Cell Center" #t)
(cx-gui-do cx-activate-item "Export*Table1*Table2*Table1*ToggleBox4(Location)*Cell Center")
(cx-gui-do cx-set-toggle-button2 "Export*Table1*Table2*Table1*ToggleBox4(Location)*Node" #t)
(cx-gui-do cx-activate-item "Export*Table1*Table2*Table1*ToggleBox4(Location)*Node")
(cx-gui-do cx-set-toggle-button2 "Export*Table1*Table2*Table1*ToggleBox7(Delimiter)*Space" #t)
(cx-gui-do cx-activate-item "Export*Table1*Table2*Table1*ToggleBox7(Delimiter)*Space")
(cx-gui-do cx-activate-item "Export*PanelButtons*PushButton2(Cancel)")
(cx-gui-do cx-activate-item "Ribbon*Frame1*Frame6(Results)*Table1*Table3(Plots)*PushButton3(Residuals)")
(cx-gui-do cx-activate-item "Residual Monitors*PanelButtons*PushButton4(Plot)")

Error: gui-monitor-residuals:  Uninitialized flow field.
Error Object: #f
(cx-gui-do cx-activate-item "Error*OK")
(cx-gui-do cx-activate-item "Residual Monitors*PanelButtons*PushButton2(Cancel)")
(cx-gui-do cx-activate-item "Ribbon*Frame1*Frame6(Results)*Table1*Table3(Plots)*PushButton5(Profile Data)")
(cx-gui-do cx-activate-item "Plot Profile Data*PanelButtons*PushButton2(Cancel)")
(cx-gui-do cx-activate-item "Ribbon*Frame1*Frame6(Results)*Table1*Table3(Animation)*PushButton3(Solution Playback)")
(cx-gui-do cx-activate-item "Playback*PanelButtons*PushButton2(Close)")
(cx-gui-do cx-activate-item "Ribbon*Frame1*Frame6(Results)*Table1*Table3(Graphics)*PushButton1(Mesh)")
(cx-gui-do cx-activate-item "Ribbon*Frame1*Frame6(Results)*Table1*Table3(Graphics)*PushButton1(Mesh)")
(cx-gui-do cx-activate-item "Ribbon*Frame1*Frame6(Results)*Table1*Table3(Graphics)*PushButton1(Mesh)")
(cx-use-window-id 51)
(cx-gui-do cx-set-list-tree-selections "NavigationPane*Frame2*Table1*List_Tree2" (list "Results|Plots"))
(cx-gui-do cx-set-list-tree-selections "NavigationPane*Frame2*Table1*List_Tree2" (list "Results|Plots"))
(cx-gui-do cx-activate-item "NavigationPane*Frame2*Table1*List_Tree2")
(cx-gui-do cx-set-list-tree-selections "NavigationPane*Frame2*Table1*List_Tree2" (list "Results|Plots"))
(cx-gui-do cx-set-list-tree-selections "NavigationPane*Frame2*Table1*List_Tree2" (list "Results|Plots|FFT"))
(cx-gui-do cx-set-list-tree-selections "NavigationPane*Frame2*Table1*List_Tree2" (list "Results|Plots|XY Plot"))
(cx-gui-do cx-set-list-tree-selections "NavigationPane*Frame2*Table1*List_Tree2" (list "Results|Plots|Data Sources"))
(cx-gui-do cx-set-list-tree-selections "NavigationPane*Frame2*Table1*List_Tree2" (list "Setup|Boundary Conditions|Inlet|anode_in (mass-flow-inlet, id=95)"))
(cx-gui-do cx-set-list-tree-selections "NavigationPane*Frame2*Table1*List_Tree2" (list "Setup|Boundary Conditions|Inlet|anode_in (mass-flow-inlet, id=95)"))
(cx-gui-do cx-activate-item "NavigationPane*Frame2*Table1*List_Tree2")
(cx-gui-do cx-set-list-tree-selections "NavigationPane*Frame2*Table1*List_Tree2" (list "Setup|Boundary Conditions|Inlet|anode_in (mass-flow-inlet, id=95)"))
(cx-gui-do cx-activate-tab-index "Mass-Flow Inlet*Frame2*Frame2" 0)
(cx-gui-do cx-activate-tab-index "Mass-Flow Inlet*Frame2*Frame2" 1)
(cx-gui-do cx-activate-tab-index "Mass-Flow Inlet*Frame2*Frame2" 0)
(cx-gui-do cx-activate-tab-index "Mass-Flow Inlet*Frame2*Frame2" 2)
(cx-gui-do cx-activate-tab-index "Mass-Flow Inlet*Frame2*Frame2" 0)
(cx-gui-do cx-activate-tab-index "Mass-Flow Inlet*Frame2*Frame2" 3)
(cx-gui-do cx-activate-tab-index "Mass-Flow Inlet*Frame2*Frame2" 0)
(cx-gui-do cx-activate-tab-index "Mass-Flow Inlet*Frame2*Frame2" 4)
(cx-gui-do cx-activate-tab-index "Mass-Flow Inlet*Frame2*Frame2" 0)
(cx-gui-do cx-activate-tab-index "Mass-Flow Inlet*Frame2*Frame2" 5)
(cx-gui-do cx-activate-tab-index "Mass-Flow Inlet*Frame2*Frame2" 0)
(cx-gui-do cx-activate-tab-index "Mass-Flow Inlet*Frame2*Frame2" 6)
(cx-gui-do cx-activate-tab-index "Mass-Flow Inlet*Frame2*Frame2" 0)
(cx-gui-do cx-activate-tab-index "Mass-Flow Inlet*Frame2*Frame2" 7)
(cx-gui-do cx-activate-tab-index "Mass-Flow Inlet*Frame2*Frame2" 0)
(cx-gui-do cx-activate-tab-index "Mass-Flow Inlet*Frame2*Frame2" 8)
(cx-gui-do cx-activate-tab-index "Mass-Flow Inlet*Frame2*Frame2" 0)
(cx-gui-do cx-activate-tab-index "Mass-Flow Inlet*Frame2*Frame2" 1)
(cx-gui-do cx-enable-apply-button "Mass-Flow Inlet")
(cx-gui-do cx-set-expression-entry "Mass-Flow Inlet*Frame2*Frame2*Frame2(Thermal)*Table1*Table1*ExpressionEntry1(Total Temperature)" '("343.15" . 0))
(cx-gui-do cx-activate-item "Mass-Flow Inlet*PanelButtons*PushButton1(OK)")
(cx-gui-do cx-activate-item "Mass-Flow Inlet*PanelButtons*PushButton1(OK)")
(cx-gui-do cx-activate-item "Mass-Flow Inlet*PanelButtons*PushButton2(Cancel)")
(cx-gui-do cx-set-list-tree-selections "NavigationPane*Frame2*Table1*List_Tree2" (list "Solution|Run Calculation"))
(cx-gui-do cx-set-list-tree-selections "NavigationPane*Frame2*Table1*List_Tree2" (list "Solution|Run Calculation"))
(cx-gui-do cx-activate-item "NavigationPane*Frame2*Table1*List_Tree2")
(cx-gui-do cx-set-list-tree-selections "NavigationPane*Frame2*Table1*List_Tree2" (list "Solution|Run Calculation"))
(cx-gui-do cx-set-integer-entry "Run Calculation*Table1*Table3(Parameters)*Table1*Table1*IntegerEntry1(Number of Iterations)" 50)
(cx-gui-do cx-activate-item "Run Calculation*Table1*Table3(Parameters)*Table1*Table1*IntegerEntry1(Number of Iterations)")
(cx-gui-do cx-activate-item "Run Calculation*Table1*Table6(Solution Advancement)*Table1*PushButton4(Calculate)")
(cx-gui-do cx-activate-item "Question*OK")

Partition interfaces are not going through highly stretched area, no repartitioning needed.
There are negative overpotentials in anode catalyst layer!
There are negative overpotentials in anode catalyst layer!
There are positive overpotentials in cathode catalyst layer!


Partition interfaces are not going through highly stretched area, no repartitioning needed.

  iter  continuity  x-velocity  y-velocity  z-velocity      energy  h2o-phase-  h2-phase-1  o2-phase-1   potential  potential-  vf-phase-2     time/iter
       V_cell  = 1.730202 (V)      ... V_open    = 1.199900 (V)
       I_anode = 0.028792 (A/cm^2) ... I_cathode = 0.041832 (A/cm^2) ... MEA_area = 1.500000 (cm^2)
     1  1.0000e+00  5.9365e-14  8.8643e+05  1.0959e+02  1.8748e-06  0.0000e+00  0.0000e+00  0.0000e+00  7.5047e-09  1.7698e-01  4.6626e-08  0:00:30   49
       V_cell  = 1.730202 (V)      ... V_open    = 1.199900 (V)
       I_anode = 22.647343 (A/cm^2) ... I_cathode = 1.094250 (A/cm^2) ... MEA_area = 1.500000 (cm^2)
     2  1.0000e+00  5.5565e-04  2.0153e-04  4.4449e-02  1.9792e-06  0.0000e+00  2.7330e-08  1.8228e-06  3.6275e-06  2.7612e-02  5.1755e-05  0:00:33   48
       V_cell  = 1.730202 (V)      ... V_open    = 1.199900 (V)
       I_anode = 7.605360 (A/cm^2) ... I_cathode = 1.169416 (A/cm^2) ... MEA_area = 1.500000 (cm^2)
     3  1.0000e+00  1.8286e-03  2.6112e-03  2.3603e-02  1.0509e-06  0.0000e+00  6.6870e-05  3.2190e-03  5.9029e-07  5.9814e-03  9.6801e-04  0:00:33   47
       V_cell  = 1.730202 (V)      ... V_open    = 1.199900 (V)
       I_anode = 1.970757 (A/cm^2) ... I_cathode = 1.184459 (A/cm^2) ... MEA_area = 1.500000 (cm^2)

 Reversed flow on 4 faces of pressure-outlet 94.
     4  1.0000e+00  1.3500e-02  1.0294e-02  7.0925e-02  3.5365e-07  0.0000e+00  6.9941e-06  4.7225e-05  3.3311e-07  2.4225e-03  7.7977e-04  0:00:32   46
       V_cell  = 1.730202 (V)      ... V_open    = 1.199900 (V)
       I_anode = 1.440314 (A/cm^2) ... I_cathode = 1.160828 (A/cm^2) ... MEA_area = 1.500000 (cm^2)

 Reversed flow on 4 faces of pressure-outlet 94.
     5  9.0544e-01  3.1334e-02  2.0447e-02  4.4559e-02  1.8491e-07  0.0000e+00  1.2963e-06  1.1601e-05  1.2032e-07  8.6865e-04  3.2817e-04  0:00:31   45
       V_cell  = 1.730202 (V)      ... V_open    = 1.199900 (V)
       I_anode = 1.242493 (A/cm^2) ... I_cathode = 1.166314 (A/cm^2) ... MEA_area = 1.500000 (cm^2)
     6  6.5630e-01  2.5972e-02  1.7552e-02  3.5961e-02  1.0929e-07  0.0000e+00  3.8996e-07  7.9428e-06  5.2010e-08  2.5156e-04  1.8404e-04  0:00:28   44
       V_cell  = 1.730202 (V)      ... V_open    = 1.199900 (V)
       I_anode = 1.186543 (A/cm^2) ... I_cathode = 1.172970 (A/cm^2) ... MEA_area = 1.500000 (cm^2)

 Reversed flow on 2 faces of pressure-outlet 100.
     7  4.7784e-01  1.8285e-02  1.2812e-02  2.0178e-02  7.1014e-08  0.0000e+00  1.5357e-07  2.5863e-06  2.0354e-08  7.0898e-05  1.1528e-04  0:00:25   43
       V_cell  = 1.730202 (V)      ... V_open    = 1.199900 (V)
       I_anode = 1.177617 (A/cm^2) ... I_cathode = 1.176125 (A/cm^2) ... MEA_area = 1.500000 (cm^2)

 Reversed flow on 2 faces of pressure-outlet 100.
     8  3.4865e-01  1.2972e-02  9.3378e-03  1.0939e-02  3.7673e-08  0.0000e+00  4.0440e-07  1.1792e-06  6.1940e-09  2.1262e-05  8.3177e-05  0:00:31   42
       V_cell  = 1.730202 (V)      ... V_open    = 1.199900 (V)
       I_anode = 1.177405 (A/cm^2) ... I_cathode = 1.177158 (A/cm^2) ... MEA_area = 1.500000 (cm^2)
     9  2.6005e-01  9.0758e-03  6.5798e-03  5.9161e-03  2.6316e-08  0.0000e+00  4.8404e-07  9.1497e-08  1.5651e-09  8.9832e-06  6.4409e-05  0:00:29   41
       V_cell  = 1.730202 (V)      ... V_open    = 1.199900 (V)
       I_anode = 1.177703 (A/cm^2) ... I_cathode = 1.177609 (A/cm^2) ... MEA_area = 1.500000 (cm^2)
    10  1.9411e-01  6.3157e-03  4.7282e-03  3.5793e-03  2.2261e-08  0.0000e+00  1.1828e-07  2.7609e-08  3.5649e-10  5.5193e-06  5.2873e-05  0:00:26   40
       V_cell  = 1.730202 (V)      ... V_open    = 1.199900 (V)
       I_anode = 1.177954 (A/cm^2) ... I_cathode = 1.177897 (A/cm^2) ... MEA_area = 1.500000 (cm^2)
    11  1.4568e-01  4.3717e-03  3.3669e-03  3.1116e-03  1.9016e-08  0.0000e+00  9.0834e-08  7.5801e-09  9.7136e-11  4.3573e-06  4.4636e-05  0:00:24   39
       V_cell  = 1.730202 (V)      ... V_open    = 1.199900 (V)
       I_anode = 1.178176 (A/cm^2) ... I_cathode = 1.178132 (A/cm^2) ... MEA_area = 1.500000 (cm^2)

  iter  continuity  x-velocity  y-velocity  z-velocity      energy  h2o-phase-  h2-phase-1  o2-phase-1   potential  potential-  vf-phase-2     time/iter
    12  1.0944e-01  3.0529e-03  2.4177e-03  2.7571e-03  1.7471e-08  0.0000e+00  1.7001e-08  2.7175e-09  4.5636e-11  3.7769e-06  3.8704e-05  0:00:22   38
       V_cell  = 1.730202 (V)      ... V_open    = 1.199900 (V)
       I_anode = 1.178374 (A/cm^2) ... I_cathode = 1.178336 (A/cm^2) ... MEA_area = 1.500000 (cm^2)
    13  8.2267e-02  2.1464e-03  1.7519e-03  2.3810e-03  1.6246e-08  0.0000e+00  4.0910e-09  6.4197e-10  3.5240e-11  3.3387e-06  3.4173e-05  0:00:20   37
       V_cell  = 1.730202 (V)      ... V_open    = 1.199900 (V)
       I_anode = 1.178550 (A/cm^2) ... I_cathode = 1.178517 (A/cm^2) ... MEA_area = 1.500000 (cm^2)
    14  6.2250e-02  1.5235e-03  1.2829e-03  2.0363e-03  1.5549e-08  0.0000e+00  1.0841e-09  2.0237e-10  3.8015e-11  3.2855e-06  3.0664e-05  0:00:19   36
       V_cell  = 1.730202 (V)      ... V_open    = 1.199900 (V)
       I_anode = 1.178729 (A/cm^2) ... I_cathode = 1.178696 (A/cm^2) ... MEA_area = 1.500000 (cm^2)
    15  4.7289e-02  1.0943e-03  9.5150e-04  1.7544e-03  1.4483e-08  0.0000e+00  2.7691e-10  9.4759e-11  2.8999e-11  2.9946e-06  2.7897e-05  0:00:18   35
       V_cell  = 1.730202 (V)      ... V_open    = 1.199900 (V)
       I_anode = 1.178888 (A/cm^2) ... I_cathode = 1.178858 (A/cm^2) ... MEA_area = 1.500000 (cm^2)
    16  3.6068e-02  7.9552e-04  7.1231e-04  1.5316e-03  1.3918e-08  0.0000e+00  6.9421e-11  4.4015e-11  3.0846e-11  2.9054e-06  2.5418e-05  0:00:17   34
       V_cell  = 1.730202 (V)      ... V_open    = 1.199900 (V)
       I_anode = 1.179046 (A/cm^2) ... I_cathode = 1.179016 (A/cm^2) ... MEA_area = 1.500000 (cm^2)
    17  2.7670e-02  5.8612e-04  5.3948e-04  1.3539e-03  1.3288e-08  0.0000e+00  1.8606e-11  3.4708e-11  3.3272e-11  2.8686e-06  2.3251e-05  0:00:16   33
       V_cell  = 1.730202 (V)      ... V_open    = 1.199900 (V)
       I_anode = 1.179202 (A/cm^2) ... I_cathode = 1.179173 (A/cm^2) ... MEA_area = 1.500000 (cm^2)
    18  2.1369e-02  4.3839e-04  4.1415e-04  1.2147e-03  1.2362e-08  0.0000e+00  6.1431e-12  2.7991e-11  2.3754e-11  2.6551e-06  2.1348e-05  0:00:16   32
       V_cell  = 1.730202 (V)      ... V_open    = 1.199900 (V)
       I_anode = 1.179344 (A/cm^2) ... I_cathode = 1.179317 (A/cm^2) ... MEA_area = 1.500000 (cm^2)
    19  1.6672e-02  3.3354e-04  3.2248e-04  1.0989e-03  1.1900e-08  0.0000e+00  2.9387e-12  3.2052e-11  3.1535e-11  2.6404e-06  1.9695e-05  0:00:15   31
       V_cell  = 1.730202 (V)      ... V_open    = 1.199900 (V)
       I_anode = 1.179487 (A/cm^2) ... I_cathode = 1.179461 (A/cm^2) ... MEA_area = 1.500000 (cm^2)
    20  1.3073e-02  2.5865e-04  2.5475e-04  1.0018e-03  1.1120e-08  0.0000e+00  2.1349e-12  3.1718e-11  2.1884e-11  2.4805e-06  1.8213e-05  0:00:14   30
       V_cell  = 1.730202 (V)      ... V_open    = 1.199900 (V)
       I_anode = 1.179621 (A/cm^2) ... I_cathode = 1.179596 (A/cm^2) ... MEA_area = 1.500000 (cm^2)
    21  1.0423e-02  2.0446e-04  2.0414e-04  9.2267e-04  1.0726e-08  0.0000e+00  1.9188e-12  2.0970e-11  2.5542e-11  2.4117e-06  1.6931e-05  0:00:13   29
       V_cell  = 1.730202 (V)      ... V_open    = 1.199900 (V)
       I_anode = 1.179751 (A/cm^2) ... I_cathode = 1.179727 (A/cm^2) ... MEA_area = 1.500000 (cm^2)
    22  8.4118e-03  1.6490e-04  1.6587e-04  8.5815e-04  1.0024e-08  0.0000e+00  1.8674e-12  2.6966e-11  1.8583e-11  2.2419e-06  1.5816e-05  0:00:13   28
       V_cell  = 1.730202 (V)      ... V_open    = 1.199900 (V)
       I_anode = 1.179871 (A/cm^2) ... I_cathode = 1.179849 (A/cm^2) ... MEA_area = 1.500000 (cm^2)

  iter  continuity  x-velocity  y-velocity  z-velocity      energy  h2o-phase-  h2-phase-1  o2-phase-1   potential  potential-  vf-phase-2     time/iter
    23  6.8984e-03  1.3563e-04  1.3668e-04  8.0383e-04  9.6714e-09  0.0000e+00  1.8539e-12  1.9479e-11  2.3174e-11  2.1820e-06  1.4848e-05  0:00:13   27
       V_cell  = 1.730202 (V)      ... V_open    = 1.199900 (V)
       I_anode = 1.179989 (A/cm^2) ... I_cathode = 1.179968 (A/cm^2) ... MEA_area = 1.500000 (cm^2)
    24  5.7465e-03  1.1382e-04  1.1408e-04  7.6042e-04  9.0441e-09  0.0000e+00  1.8509e-12  1.5511e-11  1.6759e-11  2.0279e-06  1.3989e-05  0:00:12   26
       V_cell  = 1.730202 (V)      ... V_open    = 1.199900 (V)
       I_anode = 1.180098 (A/cm^2) ... I_cathode = 1.180078 (A/cm^2) ... MEA_area = 1.500000 (cm^2)
    25  4.8657e-03  9.7233e-05  9.6439e-05  7.2360e-04  8.7332e-09  0.0000e+00  1.8503e-12  1.4769e-11  2.0859e-11  1.9720e-06  1.3235e-05  0:00:12   25
       V_cell  = 1.730202 (V)      ... V_open    = 1.199900 (V)
       I_anode = 1.180205 (A/cm^2) ... I_cathode = 1.180185 (A/cm^2) ... MEA_area = 1.500000 (cm^2)
    26  4.1582e-03  8.5444e-05  8.3877e-05  6.9522e-04  8.1678e-09  0.0000e+00  1.8502e-12  1.2800e-11  1.5104e-11  1.8331e-06  1.2623e-05  0:00:11   24
       V_cell  = 1.730202 (V)      ... V_open    = 1.199900 (V)
       I_anode = 1.180303 (A/cm^2) ... I_cathode = 1.180285 (A/cm^2) ... MEA_area = 1.500000 (cm^2)
    27  3.8076e-03  7.4436e-05  7.0746e-05  6.8000e-04  7.9068e-09  0.0000e+00  1.8501e-12  1.0043e-11  1.9034e-11  1.7851e-06  1.2632e-05  0:00:10   23
       V_cell  = 1.730202 (V)      ... V_open    = 1.199900 (V)
       I_anode = 1.180400 (A/cm^2) ... I_cathode = 1.180382 (A/cm^2) ... MEA_area = 1.500000 (cm^2)
    28  3.4644e-03  6.6094e-05  6.2111e-05  6.6798e-04  7.4210e-09  0.0000e+00  1.8501e-12  1.1470e-11  1.3483e-11  1.6501e-06  1.2150e-05  0:00:10   22
       V_cell  = 1.730202 (V)      ... V_open    = 1.199900 (V)
       I_anode = 1.180488 (A/cm^2) ... I_cathode = 1.180472 (A/cm^2) ... MEA_area = 1.500000 (cm^2)
    29  3.1704e-03  5.9603e-05  5.6966e-05  6.5136e-04  7.1832e-09  0.0000e+00  1.8501e-12  1.6993e-11  1.7285e-11  1.6089e-06  1.1921e-05  0:00:10   21
       V_cell  = 1.730202 (V)      ... V_open    = 1.199900 (V)
       I_anode = 1.180575 (A/cm^2) ... I_cathode = 1.180559 (A/cm^2) ... MEA_area = 1.500000 (cm^2)
    30  2.9276e-03  5.4756e-05  5.2372e-05  6.3009e-04  6.7189e-09  0.0000e+00  1.8501e-12  2.0809e-11  1.2202e-11  1.4893e-06  1.1179e-05  0:00:09   20
       V_cell  = 1.730202 (V)      ... V_open    = 1.199900 (V)
       I_anode = 1.180655 (A/cm^2) ... I_cathode = 1.180640 (A/cm^2) ... MEA_area = 1.500000 (cm^2)
    31  2.6671e-03  5.1386e-05  4.7185e-05  6.1234e-04  6.4952e-09  0.0000e+00  1.8501e-12  1.2327e-11  1.5606e-11  1.4522e-06  1.0549e-05  0:00:09   19
       V_cell  = 1.730202 (V)      ... V_open    = 1.199900 (V)
       I_anode = 1.180734 (A/cm^2) ... I_cathode = 1.180720 (A/cm^2) ... MEA_area = 1.500000 (cm^2)
    32  2.4048e-03  4.7762e-05  4.2191e-05  5.9977e-04  6.0700e-09  0.0000e+00  1.8501e-12  5.9488e-12  1.1104e-11  1.3498e-06  1.0103e-05  0:00:08   18
       V_cell  = 1.730202 (V)      ... V_open    = 1.199900 (V)
       I_anode = 1.180806 (A/cm^2) ... I_cathode = 1.180793 (A/cm^2) ... MEA_area = 1.500000 (cm^2)
    33  2.2264e-03  4.4193e-05  3.7910e-05  5.8970e-04  5.8661e-09  0.0000e+00  1.8501e-12  6.8958e-12  1.3545e-11  1.3076e-06  9.7270e-06  0:00:08   17
       V_cell  = 1.730202 (V)      ... V_open    = 1.199900 (V)
       I_anode = 1.180877 (A/cm^2) ... I_cathode = 1.180864 (A/cm^2) ... MEA_area = 1.500000 (cm^2)

  iter  continuity  x-velocity  y-velocity  z-velocity      energy  h2o-phase-  h2-phase-1  o2-phase-1   potential  potential-  vf-phase-2     time/iter
    34  2.1042e-03  4.0177e-05  3.4790e-05  5.8365e-04  5.4901e-09  0.0000e+00  1.8501e-12  3.6919e-12  9.7791e-12  1.2123e-06  9.4062e-06  0:00:07   16
       V_cell  = 1.730202 (V)      ... V_open    = 1.199900 (V)
       I_anode = 1.180942 (A/cm^2) ... I_cathode = 1.180930 (A/cm^2) ... MEA_area = 1.500000 (cm^2)
    35  1.9876e-03  3.7202e-05  3.1404e-05  5.6976e-04  5.3164e-09  0.0000e+00  1.8501e-12  3.1351e-12  1.2406e-11  1.1778e-06  8.9788e-06  0:00:07   15
       V_cell  = 1.730202 (V)      ... V_open    = 1.199900 (V)
       I_anode = 1.181006 (A/cm^2) ... I_cathode = 1.180994 (A/cm^2) ... MEA_area = 1.500000 (cm^2)
    36  1.8779e-03  3.4707e-05  2.8525e-05  5.6242e-04  4.9799e-09  0.0000e+00  1.8501e-12  3.3766e-12  9.0736e-12  1.0966e-06  8.6954e-06  0:00:07   14
       V_cell  = 1.730202 (V)      ... V_open    = 1.199900 (V)
       I_anode = 1.181064 (A/cm^2) ... I_cathode = 1.181054 (A/cm^2) ... MEA_area = 1.500000 (cm^2)
    37  1.8438e-03  3.2854e-05  2.6551e-05  5.6205e-04  4.8246e-09  0.0000e+00  1.8501e-12  4.1818e-12  1.1132e-11  1.0640e-06  8.5910e-06  0:00:06   13
       V_cell  = 1.730202 (V)      ... V_open    = 1.199900 (V)
       I_anode = 1.181122 (A/cm^2) ... I_cathode = 1.181112 (A/cm^2) ... MEA_area = 1.500000 (cm^2)
    38  1.7202e-03  3.1137e-05  2.4791e-05  5.5331e-04  4.5203e-09  0.0000e+00  1.8501e-12  2.7820e-12  8.1733e-12  9.9060e-07  8.2699e-06  0:00:07   12
       V_cell  = 1.730202 (V)      ... V_open    = 1.199900 (V)
       I_anode = 1.181175 (A/cm^2) ... I_cathode = 1.181165 (A/cm^2) ... MEA_area = 1.500000 (cm^2)
    39  1.6669e-03  2.9514e-05  2.3212e-05  5.4949e-04  4.3756e-09  0.0000e+00  1.8501e-12  4.0841e-12  9.9657e-12  9.5980e-07  8.1008e-06  0:00:06   11
       V_cell  = 1.730202 (V)      ... V_open    = 1.199900 (V)
       I_anode = 1.181227 (A/cm^2) ... I_cathode = 1.181218 (A/cm^2) ... MEA_area = 1.500000 (cm^2)
    40  1.6012e-03  2.7424e-05  2.2715e-05  5.4623e-04  4.1015e-09  0.0000e+00  1.8501e-12  3.1125e-12  7.3431e-12  8.9345e-07  7.8173e-06  0:00:06   10
       V_cell  = 1.730202 (V)      ... V_open    = 1.199900 (V)
       I_anode = 1.181275 (A/cm^2) ... I_cathode = 1.181266 (A/cm^2) ... MEA_area = 1.500000 (cm^2)
    41  1.5344e-03  2.5983e-05  2.1050e-05  5.3246e-04  3.9694e-09  0.0000e+00  1.8501e-12  2.0722e-12  8.9706e-12  8.6534e-07  7.4827e-06  0:00:05    9
       V_cell  = 1.730202 (V)      ... V_open    = 1.199900 (V)
       I_anode = 1.181322 (A/cm^2) ... I_cathode = 1.181313 (A/cm^2) ... MEA_area = 1.500000 (cm^2)
    42  1.4561e-03  2.4328e-05  1.9145e-05  5.2480e-04  3.7225e-09  0.0000e+00  1.8501e-12  1.4177e-11  6.7944e-12  8.0817e-07  7.2286e-06  0:00:04    8
       V_cell  = 1.730202 (V)      ... V_open    = 1.199900 (V)
       I_anode = 1.181365 (A/cm^2) ... I_cathode = 1.181357 (A/cm^2) ... MEA_area = 1.500000 (cm^2)
    43  1.4074e-03  2.2673e-05  1.7750e-05  5.2070e-04  3.6067e-09  0.0000e+00  1.8501e-12  5.0204e-12  8.1280e-12  7.8282e-07  7.0265e-06  0:00:03    7
       V_cell  = 1.730202 (V)      ... V_open    = 1.199900 (V)
       I_anode = 1.181408 (A/cm^2) ... I_cathode = 1.181400 (A/cm^2) ... MEA_area = 1.500000 (cm^2)
    44  1.3600e-03  2.1621e-05  1.6802e-05  5.1729e-04  3.3816e-09  0.0000e+00  1.8501e-12  4.6034e-11  6.0999e-12  7.3026e-07  6.8924e-06  0:00:03    6
       V_cell  = 1.730202 (V)      ... V_open    = 1.199900 (V)
       I_anode = 1.181447 (A/cm^2) ... I_cathode = 1.181440 (A/cm^2) ... MEA_area = 1.500000 (cm^2)

  iter  continuity  x-velocity  y-velocity  z-velocity      energy  h2o-phase-  h2-phase-1  o2-phase-1   potential  potential-  vf-phase-2     time/iter
    45  1.3352e-03  2.0485e-05  1.5941e-05  5.1531e-04  3.2784e-09  0.0000e+00  1.8501e-12  3.2914e-12  7.4138e-12  7.0831e-07  6.7982e-06  0:00:02    5
       V_cell  = 1.730202 (V)      ... V_open    = 1.199900 (V)
       I_anode = 1.181485 (A/cm^2) ... I_cathode = 1.181478 (A/cm^2) ... MEA_area = 1.500000 (cm^2)
    46  1.3273e-03  1.9826e-05  1.5314e-05  5.1515e-04  3.0757e-09  0.0000e+00  1.8501e-12  5.2230e-12  5.5378e-12  6.6074e-07  6.7281e-06  0:00:02    4
       V_cell  = 1.730202 (V)      ... V_open    = 1.199900 (V)
       I_anode = 1.181521 (A/cm^2) ... I_cathode = 1.181514 (A/cm^2) ... MEA_area = 1.500000 (cm^2)
    47  1.2779e-03  1.9455e-05  1.5106e-05  5.1307e-04  2.9831e-09  0.0000e+00  1.8501e-12  2.4097e-12  6.7940e-12  6.4210e-07  6.5801e-06  0:00:01    3
       V_cell  = 1.730202 (V)      ... V_open    = 1.199900 (V)
       I_anode = 1.181555 (A/cm^2) ... I_cathode = 1.181549 (A/cm^2) ... MEA_area = 1.500000 (cm^2)
    48  1.2025e-03  1.8473e-05  1.4259e-05  5.0586e-04  2.7977e-09  0.0000e+00  1.8501e-12  2.4842e-12  5.0291e-12  5.9935e-07  6.3595e-06  0:00:01    2
       V_cell  = 1.730202 (V)      ... V_open    = 1.199900 (V)
       I_anode = 1.181588 (A/cm^2) ... I_cathode = 1.181582 (A/cm^2) ... MEA_area = 1.500000 (cm^2)
    49  1.1605e-03  1.7498e-05  1.3873e-05  5.0227e-04  2.7095e-09  0.0000e+00  1.8501e-12  2.1011e-12  6.0691e-12  5.8101e-07  6.1767e-06  0:00:00    1
       V_cell  = 1.730202 (V)      ... V_open    = 1.199900 (V)
       I_anode = 1.181619 (A/cm^2) ... I_cathode = 1.181613 (A/cm^2) ... MEA_area = 1.500000 (cm^2)
    50  1.1350e-03  1.6601e-05  1.2869e-05  4.9902e-04  2.5420e-09  0.0000e+00  1.8501e-12  7.4841e-13  4.5874e-12  5.4288e-07  6.0359e-06  0:00:00    0

Calculation complete.
(cx-gui-do cx-activate-item "Information*OK")
(cx-gui-do cx-set-list-tree-selections "NavigationPane*Frame2*Table1*List_Tree2" (list "Setup|Cell Zone Conditions|Fluid|cathode_cl (fluid, id=79)"))
(cx-gui-do cx-set-list-tree-selections "NavigationPane*Frame2*Table1*List_Tree2" (list "Setup|Cell Zone Conditions|Fluid|cathode_cl (fluid, id=79)"))
(cx-gui-do cx-activate-item "NavigationPane*Frame2*Table1*List_Tree2")
(cx-gui-do cx-set-list-tree-selections "NavigationPane*Frame2*Table1*List_Tree2" (list "Setup|Cell Zone Conditions|Fluid|cathode_cl (fluid, id=79)"))
(cx-gui-do cx-activate-tab-index "Fluid*Frame2*Table3*Frame1" 0)
(cx-gui-do cx-activate-tab-index "Fluid*Frame2*Table3*Frame1" 1)
(cx-gui-do cx-activate-tab-index "Fluid*Frame2*Table3*Frame1" 0)
(cx-gui-do cx-activate-tab-index "Fluid*Frame2*Table3*Frame1" 2)
(cx-gui-do cx-activate-tab-index "Fluid*Frame2*Table3*Frame1" 0)
(cx-gui-do cx-activate-tab-index "Fluid*Frame2*Table3*Frame1" 2)
(cx-gui-do cx-activate-tab-index "Fluid*Frame2*Table3*Frame1" 0)
(cx-gui-do cx-activate-tab-index "Fluid*Frame2*Table3*Frame1" 3)
(cx-gui-do cx-activate-tab-index "Fluid*Frame2*Table3*Frame1" 0)
(cx-gui-do cx-activate-tab-index "Fluid*Frame2*Table3*Frame1" 4)
(cx-gui-do cx-activate-tab-index "Fluid*Frame2*Table3*Frame1" 0)
(cx-gui-do cx-activate-tab-index "Fluid*Frame2*Table3*Frame1" 5)
(cx-gui-do cx-activate-tab-index "Fluid*Frame2*Table3*Frame1" 0)
(cx-gui-do cx-activate-tab-index "Fluid*Frame2*Table3*Frame1" 6)
(cx-gui-do cx-activate-tab-index "Fluid*Frame2*Table3*Frame1" 0)
(cx-gui-do cx-activate-tab-index "Fluid*Frame2*Table3*Frame1" 7)
(cx-gui-do cx-activate-tab-index "Fluid*Frame2*Table3*Frame1" 0)
(cx-gui-do cx-activate-tab-index "Fluid*Frame2*Table3*Frame1" 8)
(cx-gui-do cx-activate-tab-index "Fluid*Frame2*Table3*Frame1" 0)
(cx-gui-do cx-activate-tab-index "Fluid*Frame2*Table3*Frame1" 9)
(cx-gui-do cx-activate-tab-index "Fluid*Frame2*Table3*Frame1" 0)
(cx-gui-do cx-activate-tab-index "Fluid*Frame2*Table3*Frame1" 3)
(cx-gui-do cx-activate-tab-index "Fluid*Frame2*Table3*Frame1" 0)
(cx-gui-do cx-activate-item "Fluid*PanelButtons*PushButton2(Cancel)")
(cx-gui-do cx-set-list-tree-selections "NavigationPane*Frame2*Table1*List_Tree2" (list "Setup|Cell Zone Conditions|Fluid|mem (fluid, id=78)"))
(cx-gui-do cx-set-list-tree-selections "NavigationPane*Frame2*Table1*List_Tree2" (list "Setup|Cell Zone Conditions|Fluid|mem (fluid, id=78)"))
(cx-gui-do cx-activate-item "NavigationPane*Frame2*Table1*List_Tree2")
(cx-gui-do cx-set-list-tree-selections "NavigationPane*Frame2*Table1*List_Tree2" (list "Setup|Cell Zone Conditions|Fluid|mem (fluid, id=78)"))
(cx-gui-do cx-activate-tab-index "Fluid*Frame2*Table3*Frame1" 0)
(cx-gui-do cx-activate-tab-index "Fluid*Frame2*Table3*Frame1" 1)
(cx-gui-do cx-activate-tab-index "Fluid*Frame2*Table3*Frame1" 0)
(cx-gui-do cx-activate-tab-index "Fluid*Frame2*Table3*Frame1" 2)
(cx-gui-do cx-activate-tab-index "Fluid*Frame2*Table3*Frame1" 0)
(cx-gui-do cx-activate-tab-index "Fluid*Frame2*Table3*Frame1" 2)
(cx-gui-do cx-activate-tab-index "Fluid*Frame2*Table3*Frame1" 0)
(cx-gui-do cx-activate-tab-index "Fluid*Frame2*Table3*Frame1" 3)
(cx-gui-do cx-activate-tab-index "Fluid*Frame2*Table3*Frame1" 0)
(cx-gui-do cx-activate-tab-index "Fluid*Frame2*Table3*Frame1" 4)
(cx-gui-do cx-activate-tab-index "Fluid*Frame2*Table3*Frame1" 0)
(cx-gui-do cx-activate-tab-index "Fluid*Frame2*Table3*Frame1" 5)
(cx-gui-do cx-activate-tab-index "Fluid*Frame2*Table3*Frame1" 0)
(cx-gui-do cx-activate-tab-index "Fluid*Frame2*Table3*Frame1" 6)
(cx-gui-do cx-activate-tab-index "Fluid*Frame2*Table3*Frame1" 0)
(cx-gui-do cx-activate-tab-index "Fluid*Frame2*Table3*Frame1" 7)
(cx-gui-do cx-activate-tab-index "Fluid*Frame2*Table3*Frame1" 0)
(cx-gui-do cx-activate-tab-index "Fluid*Frame2*Table3*Frame1" 8)
(cx-gui-do cx-activate-tab-index "Fluid*Frame2*Table3*Frame1" 0)
(cx-gui-do cx-activate-tab-index "Fluid*Frame2*Table3*Frame1" 9)
(cx-gui-do cx-activate-tab-index "Fluid*Frame2*Table3*Frame1" 0)
(cx-gui-do cx-activate-tab-index "Fluid*Frame2*Table3*Frame1" 3)
(cx-gui-do cx-activate-item "Fluid*PanelButtons*PushButton2(Cancel)")
(cx-gui-do cx-set-list-tree-selections "NavigationPane*Frame2*Table1*List_Tree2" (list "Setup|Cell Zone Conditions|Fluid|mem (fluid, id=78)|phase-2"))
(cx-gui-do cx-set-list-tree-selections "NavigationPane*Frame2*Table1*List_Tree2" (list "Setup|Cell Zone Conditions|Fluid|mem (fluid, id=78)|phase-2"))
(cx-gui-do cx-activate-item "NavigationPane*Frame2*Table1*List_Tree2")
(cx-gui-do cx-set-list-tree-selections "NavigationPane*Frame2*Table1*List_Tree2" (list "Setup|Cell Zone Conditions|Fluid|mem (fluid, id=78)|phase-2"))
(cx-gui-do cx-activate-tab-index "Fluid*Frame7*Table3*Frame1" 0)
(cx-gui-do cx-activate-tab-index "Fluid*Frame7*Table3*Frame1" 1)
(cx-gui-do cx-activate-tab-index "Fluid*Frame7*Table3*Frame1" 0)
(cx-gui-do cx-activate-tab-index "Fluid*Frame7*Table3*Frame1" 2)
(cx-gui-do cx-activate-tab-index "Fluid*Frame7*Table3*Frame1" 0)
(cx-gui-do cx-activate-tab-index "Fluid*Frame7*Table3*Frame1" 2)
(cx-gui-do cx-activate-tab-index "Fluid*Frame7*Table3*Frame1" 0)
(cx-gui-do cx-activate-tab-index "Fluid*Frame7*Table3*Frame1" 3)
(cx-gui-do cx-activate-tab-index "Fluid*Frame7*Table3*Frame1" 0)
(cx-gui-do cx-activate-tab-index "Fluid*Frame7*Table3*Frame1" 4)
(cx-gui-do cx-activate-tab-index "Fluid*Frame7*Table3*Frame1" 0)
(cx-gui-do cx-activate-tab-index "Fluid*Frame7*Table3*Frame1" 5)
(cx-gui-do cx-activate-tab-index "Fluid*Frame7*Table3*Frame1" 0)
(cx-gui-do cx-activate-tab-index "Fluid*Frame7*Table3*Frame1" 6)
(cx-gui-do cx-activate-tab-index "Fluid*Frame7*Table3*Frame1" 0)
(cx-gui-do cx-activate-tab-index "Fluid*Frame7*Table3*Frame1" 7)
(cx-gui-do cx-activate-tab-index "Fluid*Frame7*Table3*Frame1" 0)
(cx-gui-do cx-activate-tab-index "Fluid*Frame7*Table3*Frame1" 8)
(cx-gui-do cx-activate-tab-index "Fluid*Frame7*Table3*Frame1" 0)
(cx-gui-do cx-activate-tab-index "Fluid*Frame7*Table3*Frame1" 9)
(cx-gui-do cx-activate-tab-index "Fluid*Frame7*Table3*Frame1" 0)
(cx-gui-do cx-activate-tab-index "Fluid*Frame7*Table3*Frame1" 1)
(cx-gui-do cx-activate-tab-index "Fluid*Frame7*Table3*Frame1" 2)
(cx-gui-do cx-activate-tab-index "Fluid*Frame7*Table3*Frame1" 3)
(cx-gui-do cx-activate-item "Fluid*PanelButtons*PushButton2(Cancel)")
(cx-gui-do cx-set-list-tree-selections "NavigationPane*Frame2*Table1*List_Tree2" (list "Setup|Boundary Conditions|Inlet"))
(cx-gui-do cx-set-list-tree-selections "NavigationPane*Frame2*Table1*List_Tree2" (list "Setup|Boundary Conditions|Inlet"))
(cx-gui-do cx-activate-item "NavigationPane*Frame2*Table1*List_Tree2")
(cx-gui-do cx-set-list-tree-selections "NavigationPane*Frame2*Table1*List_Tree2" (list "Setup|Boundary Conditions|Inlet"))
(cx-gui-do cx-activate-tab-index "Mass-Flow Inlet*Frame2*Frame2" 0)
(cx-gui-do cx-activate-tab-index "Mass-Flow Inlet*Frame2*Frame2" 6)
(cx-gui-do cx-activate-item "Mass-Flow Inlet*PanelButtons*PushButton2(Cancel)")
(cx-gui-do cx-set-list-tree-selections "NavigationPane*Frame2*Table1*List_Tree2" (list "Setup|Materials|Solid|catalyst-default"))
(cx-gui-do cx-set-list-tree-selections "NavigationPane*Frame2*Table1*List_Tree2" (list "Setup|Materials|Solid|catalyst-default"))
(cx-gui-do cx-activate-item "NavigationPane*Frame2*Table1*List_Tree2")
(cx-gui-do cx-set-list-tree-selections "NavigationPane*Frame2*Table1*List_Tree2" (list "Setup|Materials|Solid|catalyst-default"))
(cx-gui-do cx-activate-item "Create/Edit Materials*PanelButtons*PushButton1(Close)")
(cx-gui-do cx-set-list-tree-selections "NavigationPane*Frame2*Table1*List_Tree2" (list "Setup|Models|Potential/Electrochemistry (On)"))
(cx-gui-do cx-set-list-tree-selections "NavigationPane*Frame2*Table1*List_Tree2" (list "Setup|Models|Potential/Electrochemistry (On)"))
(cx-gui-do cx-activate-item "NavigationPane*Frame2*Table1*List_Tree2")
(cx-gui-do cx-set-list-tree-selections "NavigationPane*Frame2*Table1*List_Tree2" (list "Setup|Models|Potential/Electrochemistry (On)"))
(cx-gui-do cx-activate-tab-index "Potential/Electrochemistry*Table1*ToggleBox3(Lithium-ion Battery Options)*Frame2" 0)
(cx-gui-do cx-activate-tab-index "Potential/Electrochemistry*Table1*ToggleBox3(Lithium-ion Battery Options)*Frame2" 1)
(cx-gui-do cx-activate-tab-index "Potential/Electrochemistry*Table1*ToggleBox3(Lithium-ion Battery Options)*Frame2" 0)
(cx-gui-do cx-activate-tab-index "Potential/Electrochemistry*Table1*ToggleBox3(Lithium-ion Battery Options)*Frame2" 2)
(cx-gui-do cx-activate-tab-index "Potential/Electrochemistry*Table1*ToggleBox3(Lithium-ion Battery Options)*Frame2" 0)
(cx-gui-do cx-activate-tab-index "Potential/Electrochemistry*Table1*ToggleBox3(Lithium-ion Battery Options)*Frame2" 3)
(cx-gui-do cx-activate-tab-index "Potential/Electrochemistry*Table1*ToggleBox3(Lithium-ion Battery Options)*Frame2" 0)
(cx-gui-do cx-activate-tab-index "Potential/Electrochemistry*Table1*ToggleBox3(Lithium-ion Battery Options)*Frame2" 4)
(cx-gui-do cx-activate-tab-index "Potential/Electrochemistry*Table1*ToggleBox3(Lithium-ion Battery Options)*Frame2" 0)
(cx-gui-do cx-activate-tab-index "Potential/Electrochemistry*Table1*ToggleBox4(Electrochemical Devices Options)*Frame1" 0)
(cx-gui-do cx-activate-tab-index "Potential/Electrochemistry*Table1*ToggleBox4(Electrochemical Devices Options)*Frame1" 1)
(cx-gui-do cx-activate-tab-index "Potential/Electrochemistry*Table1*ToggleBox4(Electrochemical Devices Options)*Frame1" 0)
(cx-gui-do cx-activate-tab-index "Potential/Electrochemistry*Table1*ToggleBox4(Electrochemical Devices Options)*Frame1" 2)
(cx-gui-do cx-activate-tab-index "Potential/Electrochemistry*Table1*ToggleBox4(Electrochemical Devices Options)*Frame1" 0)
(cx-gui-do cx-activate-tab-index "Potential/Electrochemistry*Table1*ToggleBox4(Electrochemical Devices Options)*Frame1" 3)
(cx-gui-do cx-activate-tab-index "Potential/Electrochemistry*Table1*ToggleBox4(Electrochemical Devices Options)*Frame1" 0)
(cx-gui-do cx-activate-tab-index "Potential/Electrochemistry*Table1*ToggleBox4(Electrochemical Devices Options)*Frame1" 4)
(cx-gui-do cx-activate-tab-index "Potential/Electrochemistry*Table1*ToggleBox4(Electrochemical Devices Options)*Frame1" 0)
(cx-gui-do cx-activate-tab-index "Potential/Electrochemistry*Table1*ToggleBox4(Electrochemical Devices Options)*Frame1" 5)
(cx-gui-do cx-activate-tab-index "Potential/Electrochemistry*Table1*ToggleBox4(Electrochemical Devices Options)*Frame1" 0)
(cx-gui-do cx-activate-tab-index "Potential/Electrochemistry*Table1*ToggleBox4(Electrochemical Devices Options)*Frame1" 6)
(cx-gui-do cx-activate-tab-index "Potential/Electrochemistry*Table1*ToggleBox4(Electrochemical Devices Options)*Frame1" 0)
(cx-gui-do cx-activate-tab-index "Potential/Electrochemistry*Table1*ToggleBox4(Electrochemical Devices Options)*Frame1" 7)
(cx-gui-do cx-activate-tab-index "Potential/Electrochemistry*Table1*ToggleBox4(Electrochemical Devices Options)*Frame1" 0)
(cx-gui-do cx-activate-tab-index "Potential/Electrochemistry*Table1*ToggleBox4(Electrochemical Devices Options)*Frame1" 1)
(cx-gui-do cx-activate-tab-index "Potential/Electrochemistry*Table1*ToggleBox4(Electrochemical Devices Options)*Frame1" 0)
(cx-gui-do cx-set-expression-entry "Potential/Electrochemistry*Table1*ToggleBox4(Electrochemical Devices Options)*Frame1*Frame1(Model)*Frame1*Table1*Table2(Electrical System Setup)*Table2*ExpressionEntry1(Total Voltage)" '("1.8" . 0))
(cx-gui-do cx-set-expression-entry "Potential/Electrochemistry*Table1*ToggleBox4(Electrochemical Devices Options)*Frame1*Frame1(Model)*Frame1*Table1*Table2(Electrical System Setup)*Table2*ExpressionEntry1(Total Voltage)" '("1.8" . 0))
(cx-gui-do cx-activate-item "Potential/Electrochemistry*PanelButtons*PushButton1(OK)")
(cx-gui-do cx-activate-item "Run Calculation*Table1*Table6(Solution Advancement)*Table1*PushButton4(Calculate)")


Partition interfaces are not going through highly stretched area, no repartitioning needed.

  iter  continuity  x-velocity  y-velocity  z-velocity      energy  h2o-phase-  h2-phase-1  o2-phase-1   potential  potential-  vf-phase-2     time/iter
    50  1.1350e-03  1.6601e-05  1.2869e-05  4.9902e-04  2.5420e-09  0.0000e+00  1.8501e-12  7.4841e-13  4.5874e-12  5.4288e-07  6.0359e-06  0:00:23   50
       V_cell  = 1.800000 (V)      ... V_open    = 1.199900 (V)
       I_anode = 1.181648 (A/cm^2) ... I_cathode = 1.181643 (A/cm^2) ... MEA_area = 1.500000 (cm^2)
    51  1.1011e-03  1.5491e-05  1.1909e-05  4.9410e-04  2.4661e-09  0.0000e+00  1.8501e-12  8.1582e-13  2.7116e-04  4.3309e-02  5.8742e-06  0:00:24   49
       V_cell  = 1.800000 (V)      ... V_open    = 1.199900 (V)
       I_anode = 31.983016 (A/cm^2) ... I_cathode = 1.285835 (A/cm^2) ... MEA_area = 1.500000 (cm^2)
    52  1.7466e-01  1.4835e-05  1.1720e-05  5.0465e-04  2.3166e-09  0.0000e+00  1.8495e-12  1.8705e-10  1.1244e-06  9.6538e-03  8.0351e-04  0:00:24   48
       V_cell  = 1.800000 (V)      ... V_open    = 1.199900 (V)
       I_anode = 3.876480 (A/cm^2) ... I_cathode = 1.513122 (A/cm^2) ... MEA_area = 1.500000 (cm^2)
    53  5.0551e-01  1.8175e-03  1.6586e-03  2.9480e-02  8.9669e-09  0.0000e+00  1.8569e-12  3.7491e-04  6.0835e-07  3.5377e-03  2.0651e-03  0:00:24   47
       V_cell  = 1.800000 (V)      ... V_open    = 1.199900 (V)
       I_anode = 2.133293 (A/cm^2) ... I_cathode = 1.603450 (A/cm^2) ... MEA_area = 1.500000 (cm^2)

 Reversed flow on 12 faces of pressure-outlet 94.
    54  2.9710e-01  4.2141e-03  3.2700e-03  6.0568e-02  7.8379e-09  0.0000e+00  1.8565e-12  2.2932e-05  2.3881e-07  9.5147e-04  1.2965e-03  0:00:23   46
       V_cell  = 1.800000 (V)      ... V_open    = 1.199900 (V)
       I_anode = 1.676037 (A/cm^2) ... I_cathode = 1.623123 (A/cm^2) ... MEA_area = 1.500000 (cm^2)

 Reversed flow on 6 faces of pressure-outlet 94.
    55  1.9695e-01  3.0678e-03  2.6740e-03  2.8987e-02  4.3133e-09  0.0000e+00  1.8515e-12  3.2337e-05  6.2662e-08  1.7217e-04  6.3522e-04  0:00:21   45
       V_cell  = 1.800000 (V)      ... V_open    = 1.199900 (V)
       I_anode = 1.627687 (A/cm^2) ... I_cathode = 1.624589 (A/cm^2) ... MEA_area = 1.500000 (cm^2)
    56  1.2414e-01  2.1169e-03  1.8470e-03  9.8127e-03  4.4253e-09  0.0000e+00  1.8502e-12  3.5377e-05  1.3291e-08  2.5037e-05  3.8358e-04  0:00:20   44
       V_cell  = 1.800000 (V)      ... V_open    = 1.199900 (V)
       I_anode = 1.625499 (A/cm^2) ... I_cathode = 1.625245 (A/cm^2) ... MEA_area = 1.500000 (cm^2)
    57  8.9259e-02  1.4281e-03  1.2841e-03  4.7587e-03  2.7631e-09  0.0000e+00  1.8495e-12  7.2926e-06  2.1690e-09  3.6929e-06  2.1410e-04  0:00:19   43
       V_cell  = 1.800000 (V)      ... V_open    = 1.199900 (V)
       I_anode = 1.625412 (A/cm^2) ... I_cathode = 1.625379 (A/cm^2) ... MEA_area = 1.500000 (cm^2)
    58  6.4475e-02  9.3652e-04  8.5728e-04  3.7235e-03  2.0252e-09  0.0000e+00  1.8498e-12  2.1651e-06  3.2194e-10  6.8726e-07  1.3163e-04  0:00:18   42
       V_cell  = 1.800000 (V)      ... V_open    = 1.199900 (V)
       I_anode = 1.625415 (A/cm^2) ... I_cathode = 1.625409 (A/cm^2) ... MEA_area = 1.500000 (cm^2)
    59  5.7564e-02  5.8672e-04  6.1570e-04  2.8763e-03  1.7853e-09  0.0000e+00  1.8494e-12  1.7491e-07  4.7945e-11  2.4778e-07  9.5786e-05  0:00:18   41
       V_cell  = 1.800000 (V)      ... V_open    = 1.199900 (V)
       I_anode = 1.625424 (A/cm^2) ... I_cathode = 1.625422 (A/cm^2) ... MEA_area = 1.500000 (cm^2)
    60  4.1941e-02  3.7924e-04  4.3542e-04  2.1608e-03  1.5065e-09  0.0000e+00  1.8494e-12  5.2437e-08  6.4305e-12  1.9927e-07  8.2319e-05  0:00:17   40
       V_cell  = 1.800000 (V)      ... V_open    = 1.199900 (V)
       I_anode = 1.625434 (A/cm^2) ... I_cathode = 1.625432 (A/cm^2) ... MEA_area = 1.500000 (cm^2)

  iter  continuity  x-velocity  y-velocity  z-velocity      energy  h2o-phase-  h2-phase-1  o2-phase-1   potential  potential-  vf-phase-2     time/iter
    61  3.1352e-02  2.6224e-04  3.1714e-04  1.6521e-03  1.3696e-09  0.0000e+00  1.8494e-12  1.7009e-08  2.4630e-12  1.9677e-07  7.4210e-05  0:00:16   39
       V_cell  = 1.800000 (V)      ... V_open    = 1.199900 (V)
       I_anode = 1.625444 (A/cm^2) ... I_cathode = 1.625443 (A/cm^2) ... MEA_area = 1.500000 (cm^2)
    62  2.4648e-02  1.9350e-04  2.3093e-04  1.3335e-03  1.2809e-09  0.0000e+00  1.8494e-12  3.8572e-09  2.2396e-12  1.9460e-07  6.8250e-05  0:00:16   38
       V_cell  = 1.800000 (V)      ... V_open    = 1.199900 (V)
       I_anode = 1.625455 (A/cm^2) ... I_cathode = 1.625453 (A/cm^2) ... MEA_area = 1.500000 (cm^2)
    63  1.9400e-02  1.5285e-04  1.8271e-04  1.1230e-03  1.2102e-09  0.0000e+00  1.8494e-12  7.2808e-10  2.2116e-12  1.9261e-07  6.2466e-05  0:00:15   37
       V_cell  = 1.800000 (V)      ... V_open    = 1.199900 (V)
       I_anode = 1.625465 (A/cm^2) ... I_cathode = 1.625463 (A/cm^2) ... MEA_area = 1.500000 (cm^2)
    64  1.5721e-02  1.2360e-04  1.5733e-04  1.0016e-03  1.1526e-09  0.0000e+00  1.8494e-12  2.8488e-10  1.9231e-12  1.8509e-07  6.0545e-05  0:00:15   36
       V_cell  = 1.800000 (V)      ... V_open    = 1.199900 (V)
       I_anode = 1.625475 (A/cm^2) ... I_cathode = 1.625473 (A/cm^2) ... MEA_area = 1.500000 (cm^2)
    65  1.3117e-02  1.0079e-04  1.4097e-04  9.1709e-04  1.1002e-09  0.0000e+00  1.8494e-12  1.0398e-10  2.1321e-12  1.8342e-07  5.7259e-05  0:00:16   35
       V_cell  = 1.800000 (V)      ... V_open    = 1.199900 (V)
       I_anode = 1.625485 (A/cm^2) ... I_cathode = 1.625483 (A/cm^2) ... MEA_area = 1.500000 (cm^2)
    66  1.1225e-02  8.3021e-05  1.2799e-04  8.5446e-04  1.0589e-09  0.0000e+00  1.8494e-12  7.3235e-11  2.1300e-12  1.8215e-07  5.2450e-05  0:00:15   34
       V_cell  = 1.800000 (V)      ... V_open    = 1.199900 (V)
       I_anode = 1.625494 (A/cm^2) ... I_cathode = 1.625493 (A/cm^2) ... MEA_area = 1.500000 (cm^2)
    67  9.5580e-03  6.8232e-05  1.1251e-04  7.9493e-04  1.0150e-09  0.0000e+00  1.8494e-12  6.8099e-11  2.1239e-12  1.8102e-07  4.6186e-05  0:00:17   33
       V_cell  = 1.800000 (V)      ... V_open    = 1.199900 (V)
       I_anode = 1.625504 (A/cm^2) ... I_cathode = 1.625502 (A/cm^2) ... MEA_area = 1.500000 (cm^2)
    68  8.3334e-03  5.6460e-05  9.7685e-05  7.5207e-04  9.7052e-10  0.0000e+00  1.8494e-12  1.4455e-10  1.8107e-12  1.7635e-07  4.6760e-05  0:00:16   32
       V_cell  = 1.800000 (V)      ... V_open    = 1.199900 (V)
       I_anode = 1.625513 (A/cm^2) ... I_cathode = 1.625512 (A/cm^2) ... MEA_area = 1.500000 (cm^2)
    69  7.2570e-03  4.7165e-05  8.5798e-05  7.1509e-04  9.3201e-10  0.0000e+00  1.8494e-12  5.6239e-11  1.6066e-12  1.7019e-07  4.1029e-05  0:00:15   31
       V_cell  = 1.800000 (V)      ... V_open    = 1.199900 (V)
       I_anode = 1.625522 (A/cm^2) ... I_cathode = 1.625521 (A/cm^2) ... MEA_area = 1.500000 (cm^2)
    70  6.4417e-03  3.9758e-05  7.4235e-05  7.0073e-04  8.9619e-10  0.0000e+00  1.8494e-12  5.6267e-11  1.5511e-12  1.6442e-07  3.7656e-05  0:00:14   30
       V_cell  = 1.800000 (V)      ... V_open    = 1.199900 (V)
       I_anode = 1.625531 (A/cm^2) ... I_cathode = 1.625530 (A/cm^2) ... MEA_area = 1.500000 (cm^2)
    71  5.4787e-03  3.4023e-05  6.3685e-05  6.6375e-04  8.5773e-10  0.0000e+00  1.8494e-12  6.3150e-11  1.5692e-12  1.5967e-07  3.1396e-05  0:00:15   29
       V_cell  = 1.800000 (V)      ... V_open    = 1.199900 (V)
       I_anode = 1.625539 (A/cm^2) ... I_cathode = 1.625538 (A/cm^2) ... MEA_area = 1.500000 (cm^2)

  iter  continuity  x-velocity  y-velocity  z-velocity      energy  h2o-phase-  h2-phase-1  o2-phase-1   potential  potential-  vf-phase-2     time/iter
    72  4.5338e-03  2.9105e-05  5.4445e-05  6.3153e-04  8.1989e-10  0.0000e+00  1.8494e-12  8.1418e-11  1.4765e-12  1.5445e-07  2.7046e-05  0:00:14   28
       V_cell  = 1.800000 (V)      ... V_open    = 1.199900 (V)
       I_anode = 1.625548 (A/cm^2) ... I_cathode = 1.625546 (A/cm^2) ... MEA_area = 1.500000 (cm^2)
    73  4.0653e-03  2.5034e-05  4.6944e-05  6.1215e-04  7.8509e-10  0.0000e+00  1.8494e-12  3.8932e-11  1.4455e-12  1.4965e-07  2.3587e-05  0:00:13   27
       V_cell  = 1.800000 (V)      ... V_open    = 1.199900 (V)
       I_anode = 1.625556 (A/cm^2) ... I_cathode = 1.625554 (A/cm^2) ... MEA_area = 1.500000 (cm^2)
    74  3.7228e-03  2.2472e-05  4.1703e-05  5.9667e-04  7.5238e-10  0.0000e+00  1.8494e-12  5.4347e-11  1.3234e-12  1.4400e-07  2.2941e-05  0:00:13   26
       V_cell  = 1.800000 (V)      ... V_open    = 1.199900 (V)
       I_anode = 1.625563 (A/cm^2) ... I_cathode = 1.625562 (A/cm^2) ... MEA_area = 1.500000 (cm^2)
    75  3.3630e-03  2.0327e-05  3.6720e-05  5.7675e-04  7.0286e-10  0.0000e+00  1.8494e-12  2.7339e-11  1.3860e-12  1.3993e-07  2.0127e-05  0:00:13   25
       V_cell  = 1.800000 (V)      ... V_open    = 1.199900 (V)
       I_anode = 1.625571 (A/cm^2) ... I_cathode = 1.625569 (A/cm^2) ... MEA_area = 1.500000 (cm^2)
    76  3.0807e-03  1.8554e-05  3.2417e-05  5.6426e-04  6.8179e-10  0.0000e+00  1.8494e-12  2.7069e-11  1.2800e-12  1.3527e-07  1.9192e-05  0:00:13   24
       V_cell  = 1.800000 (V)      ... V_open    = 1.199900 (V)
       I_anode = 1.625578 (A/cm^2) ... I_cathode = 1.625577 (A/cm^2) ... MEA_area = 1.500000 (cm^2)
    77  2.7826e-03  1.7008e-05  2.8613e-05  5.4884e-04  6.5700e-10  0.0000e+00  1.8494e-12  2.4170e-11  1.1494e-12  1.2977e-07  1.7320e-05  0:00:15   23
       V_cell  = 1.800000 (V)      ... V_open    = 1.199900 (V)
       I_anode = 1.625585 (A/cm^2) ... I_cathode = 1.625584 (A/cm^2) ... MEA_area = 1.500000 (cm^2)
    78  2.5845e-03  1.5808e-05  2.5736e-05  5.4219e-04  6.3153e-10  0.0000e+00  1.8494e-12  3.1587e-11  1.0443e-12  1.2372e-07  1.6843e-05  0:00:13   22
       V_cell  = 1.800000 (V)      ... V_open    = 1.199900 (V)
       I_anode = 1.625591 (A/cm^2) ... I_cathode = 1.625590 (A/cm^2) ... MEA_area = 1.500000 (cm^2)
    79  2.2940e-03  1.4741e-05  2.3351e-05  5.3013e-04  5.9078e-10  0.0000e+00  1.8494e-12  1.1037e-11  1.1001e-12  1.1922e-07  1.5329e-05  0:00:12   21
       V_cell  = 1.800000 (V)      ... V_open    = 1.199900 (V)
       I_anode = 1.625597 (A/cm^2) ... I_cathode = 1.625596 (A/cm^2) ... MEA_area = 1.500000 (cm^2)
    80  2.0017e-03  1.3804e-05  2.1766e-05  5.1967e-04  5.7356e-10  0.0000e+00  1.8494e-12  1.0076e-11  1.0799e-12  1.1516e-07  1.4261e-05  0:00:11   20
       V_cell  = 1.800000 (V)      ... V_open    = 1.199900 (V)
       I_anode = 1.625604 (A/cm^2) ... I_cathode = 1.625603 (A/cm^2) ... MEA_area = 1.500000 (cm^2)
    81  1.7514e-03  1.2854e-05  1.8992e-05  5.0590e-04  5.5197e-10  0.0000e+00  1.8494e-12  2.7068e-12  9.3466e-13  1.0983e-07  1.3028e-05  0:00:10   19
       V_cell  = 1.800000 (V)      ... V_open    = 1.199900 (V)
       I_anode = 1.625609 (A/cm^2) ... I_cathode = 1.625608 (A/cm^2) ... MEA_area = 1.500000 (cm^2)
    82  1.5754e-03  1.2035e-05  1.6990e-05  4.9761e-04  5.1630e-10  0.0000e+00  1.8494e-12  1.4276e-11  9.5784e-13  1.0560e-07  1.1937e-05  0:00:09   18
       V_cell  = 1.800000 (V)      ... V_open    = 1.199900 (V)
       I_anode = 1.625615 (A/cm^2) ... I_cathode = 1.625614 (A/cm^2) ... MEA_area = 1.500000 (cm^2)

  iter  continuity  x-velocity  y-velocity  z-velocity      energy  h2o-phase-  h2-phase-1  o2-phase-1   potential  potential-  vf-phase-2     time/iter
    83  1.4873e-03  1.1745e-05  1.5788e-05  4.9579e-04  5.0227e-10  0.0000e+00  1.8494e-12  8.8011e-12  9.4906e-13  1.0192e-07  1.2188e-05  0:00:08   17
       V_cell  = 1.800000 (V)      ... V_open    = 1.199900 (V)
       I_anode = 1.625620 (A/cm^2) ... I_cathode = 1.625619 (A/cm^2) ... MEA_area = 1.500000 (cm^2)
    84  1.3563e-03  1.0822e-05  1.4854e-05  4.9127e-04  4.8379e-10  0.0000e+00  1.8494e-12  1.5448e-11  8.2599e-13  9.7165e-08  1.1261e-05  0:00:08   16
       V_cell  = 1.800000 (V)      ... V_open    = 1.199900 (V)
       I_anode = 1.625625 (A/cm^2) ... I_cathode = 1.625625 (A/cm^2) ... MEA_area = 1.500000 (cm^2)
    85  1.2798e-03  1.0618e-05  1.4705e-05  4.8953e-04  4.5324e-10  0.0000e+00  1.8494e-12  2.0921e-11  8.3915e-13  9.3328e-08  1.0981e-05  0:00:07   15
       V_cell  = 1.800000 (V)      ... V_open    = 1.199900 (V)
       I_anode = 1.625630 (A/cm^2) ... I_cathode = 1.625630 (A/cm^2) ... MEA_area = 1.500000 (cm^2)
    86  1.1981e-03  1.0196e-05  1.4019e-05  4.8738e-04  4.4059e-10  0.0000e+00  1.8494e-12  9.4144e-12  8.1985e-13  8.9778e-08  1.0611e-05  0:00:07   14
       V_cell  = 1.800000 (V)      ... V_open    = 1.199900 (V)
       I_anode = 1.625635 (A/cm^2) ... I_cathode = 1.625634 (A/cm^2) ... MEA_area = 1.500000 (cm^2)
    87  1.1503e-03  9.7522e-06  1.3097e-05  4.8517e-04  4.1479e-10  0.0000e+00  1.8494e-12  9.7640e-12  7.7224e-13  8.6165e-08  1.0364e-05  0:00:07   13
       V_cell  = 1.800000 (V)      ... V_open    = 1.199900 (V)
       I_anode = 1.625640 (A/cm^2) ... I_cathode = 1.625639 (A/cm^2) ... MEA_area = 1.500000 (cm^2)
    88  1.1646e-03  9.4137e-06  1.2033e-05  4.8181e-04  4.0385e-10  0.0000e+00  1.8494e-12  8.5224e-12  7.5931e-13  8.2994e-08  1.0475e-05  0:00:06   12
       V_cell  = 1.800000 (V)      ... V_open    = 1.199900 (V)
       I_anode = 1.625644 (A/cm^2) ... I_cathode = 1.625643 (A/cm^2) ... MEA_area = 1.500000 (cm^2)
    89  1.0759e-03  9.1470e-06  1.0938e-05  4.7721e-04  3.8988e-10  0.0000e+00  1.8494e-12  8.3853e-12  6.7383e-13  7.9153e-08  1.0109e-05  0:00:05   11
       V_cell  = 1.800000 (V)      ... V_open    = 1.199900 (V)
       I_anode = 1.625648 (A/cm^2) ... I_cathode = 1.625648 (A/cm^2) ... MEA_area = 1.500000 (cm^2)
    90  1.0166e-03  8.8133e-06  9.8387e-06  4.7245e-04  3.6552e-10  0.0000e+00  1.8494e-12  2.5950e-12  6.5637e-13  7.5711e-08  9.9875e-06  0:00:05   10
       V_cell  = 1.800000 (V)      ... V_open    = 1.199900 (V)
[...]

  iter  continuity  x-velocity  y-velocity  z-velocity      energy  h2o-phase-  h2-phase-1  o2-phase-1   potential  potential-  vf-phase-2     time/iter
  1415  5.1925e-03  1.0537e-05  1.6712e-05  6.0273e-04  6.5148e-10  0.0000e+00  1.8491e-12  5.2617e-11  1.2894e-12  1.4254e-07  2.2051e-05  0:00:23   35
       V_cell  = 1.700000 (V)      ... V_open    = 1.199900 (V)
       I_anode = 1.577651 (A/cm^2) ... I_cathode = 1.577649 (A/cm^2) ... MEA_area = 1.500000 (cm^2)
  1416  4.9995e-03  1.0326e-05  1.5561e-05  5.8805e-04  6.1064e-10  0.0000e+00  1.8491e-12  7.2644e-11  1.3181e-12  1.3670e-07  2.2359e-05  0:00:25   34
       V_cell  = 1.700000 (V)      ... V_open    = 1.199900 (V)
       I_anode = 1.577658 (A/cm^2) ... I_cathode = 1.577656 (A/cm^2) ... MEA_area = 1.500000 (cm^2)
  1417  5.0864e-03  1.0627e-05  1.6301e-05  5.9159e-04  5.9558e-10  0.0000e+00  1.8491e-12  1.4601e-10  1.2419e-12  1.3082e-07  2.3331e-05  0:00:23   33
       V_cell  = 1.700000 (V)      ... V_open    = 1.199900 (V)
       I_anode = 1.577664 (A/cm^2) ... I_cathode = 1.577663 (A/cm^2) ... MEA_area = 1.500000 (cm^2)
  1418  5.7429e-03  1.1233e-05  1.7431e-05  6.1999e-04  5.6265e-10  0.0000e+00  1.8491e-12  1.5143e-10  1.2241e-12  1.2564e-07  2.6830e-05  0:00:22   32
       V_cell  = 1.700000 (V)      ... V_open    = 1.199900 (V)
       I_anode = 1.577671 (A/cm^2) ... I_cathode = 1.577670 (A/cm^2) ... MEA_area = 1.500000 (cm^2)
  1419  6.1775e-03  1.2257e-05  1.9467e-05  6.4135e-04  5.4945e-10  0.0000e+00  1.8492e-12  8.4854e-11  1.1714e-12  1.2073e-07  2.9131e-05  0:00:22   31
       V_cell  = 1.700000 (V)      ... V_open    = 1.199900 (V)
       I_anode = 1.577677 (A/cm^2) ... I_cathode = 1.577676 (A/cm^2) ... MEA_area = 1.500000 (cm^2)
  1420  6.3472e-03  1.2942e-05  2.0592e-05  6.4788e-04  5.3096e-10  0.0000e+00  1.8491e-12  1.9867e-10  1.0374e-12  1.1467e-07  2.9802e-05  0:00:21   30
       V_cell  = 1.700000 (V)      ... V_open    = 1.199900 (V)
       I_anode = 1.577683 (A/cm^2) ... I_cathode = 1.577682 (A/cm^2) ... MEA_area = 1.500000 (cm^2)
  1421  6.5298e-03  1.3204e-05  2.0667e-05  6.6118e-04  4.9911e-10  0.0000e+00  1.8492e-12  1.2692e-10  1.0814e-12  1.1024e-07  2.8683e-05  0:00:20   29
       V_cell  = 1.700000 (V)      ... V_open    = 1.199900 (V)
       I_anode = 1.577689 (A/cm^2) ... I_cathode = 1.577688 (A/cm^2) ... MEA_area = 1.500000 (cm^2)
  1422  6.3356e-03  1.3248e-05  1.9875e-05  6.6046e-04  4.8547e-10  0.0000e+00  1.8491e-12  8.7218e-11  1.0484e-12  1.0616e-07  2.9287e-05  0:00:20   28
       V_cell  = 1.700000 (V)      ... V_open    = 1.199900 (V)
       I_anode = 1.577694 (A/cm^2) ... I_cathode = 1.577693 (A/cm^2) ... MEA_area = 1.500000 (cm^2)
  1423  6.1785e-03  1.3303e-05  1.9960e-05  6.5946e-04  4.6946e-10  0.0000e+00  1.8492e-12  5.9921e-11  9.0618e-13  1.0076e-07  2.8924e-05  0:00:19   27
       V_cell  = 1.700000 (V)      ... V_open    = 1.199900 (V)
       I_anode = 1.577700 (A/cm^2) ... I_cathode = 1.577699 (A/cm^2) ... MEA_area = 1.500000 (cm^2)
  1424  5.9581e-03  1.3646e-05  2.0247e-05  6.4820e-04  4.4036e-10  0.0000e+00  1.8491e-12  6.4203e-11  9.5022e-13  9.6886e-08  2.6871e-05  0:00:23   26
       V_cell  = 1.700000 (V)      ... V_open    = 1.199900 (V)
       I_anode = 1.577705 (A/cm^2) ... I_cathode = 1.577704 (A/cm^2) ... MEA_area = 1.500000 (cm^2)
  1425  5.5585e-03  1.3742e-05  2.0131e-05  6.3529e-04  4.2822e-10  0.0000e+00  1.8492e-12  7.7518e-11  9.0052e-13  9.3063e-08  2.4223e-05  0:00:21   25
       V_cell  = 1.700000 (V)      ... V_open    = 1.199900 (V)
       I_anode = 1.577709 (A/cm^2) ... I_cathode = 1.577709 (A/cm^2) ... MEA_area = 1.500000 (cm^2)

  iter  continuity  x-velocity  y-velocity  z-velocity      energy  h2o-phase-  h2-phase-1  o2-phase-1   potential  potential-  vf-phase-2     time/iter
  1426  5.4367e-03  1.3274e-05  1.9511e-05  6.3026e-04  4.1305e-10  0.0000e+00  1.8491e-12  1.1640e-10  7.9158e-13  8.8348e-08  2.3347e-05  0:00:19   24
       V_cell  = 1.700000 (V)      ... V_open    = 1.199900 (V)
       I_anode = 1.577714 (A/cm^2) ... I_cathode = 1.577713 (A/cm^2) ... MEA_area = 1.500000 (cm^2)
  1427  5.2319e-03  1.2871e-05  1.8838e-05  6.1262e-04  3.8748e-10  0.0000e+00  1.8491e-12  1.6667e-10  9.2935e-13  8.6197e-08  2.0829e-05  0:00:18   23
       V_cell  = 1.700000 (V)      ... V_open    = 1.199900 (V)
       I_anode = 1.577718 (A/cm^2) ... I_cathode = 1.577718 (A/cm^2) ... MEA_area = 1.500000 (cm^2)
  1428  4.6032e-03  1.1564e-05  1.7447e-05  5.9662e-04  3.7618e-10  0.0000e+00  1.8491e-12  6.0049e-11  7.6144e-13  8.2253e-08  1.8955e-05  0:00:17   22
       V_cell  = 1.700000 (V)      ... V_open    = 1.199900 (V)
       I_anode = 1.577723 (A/cm^2) ... I_cathode = 1.577722 (A/cm^2) ... MEA_area = 1.500000 (cm^2)
  1429  4.3949e-03  1.0563e-05  1.6217e-05  5.8855e-04  3.6312e-10  0.0000e+00  1.8491e-12  4.7210e-11  6.5756e-13  7.7166e-08  1.8195e-05  0:00:16   21
       V_cell  = 1.700000 (V)      ... V_open    = 1.199900 (V)
       I_anode = 1.577727 (A/cm^2) ... I_cathode = 1.577726 (A/cm^2) ... MEA_area = 1.500000 (cm^2)
  1430  4.0528e-03  9.8887e-06  1.4758e-05  5.7422e-04  3.3962e-10  0.0000e+00  1.8491e-12  3.0483e-11  7.1607e-13  7.4093e-08  1.6119e-05  0:00:14   20
       V_cell  = 1.700000 (V)      ... V_open    = 1.199900 (V)
       I_anode = 1.577731 (A/cm^2) ... I_cathode = 1.577730 (A/cm^2) ... MEA_area = 1.500000 (cm^2)
  1431  3.7698e-03  9.1643e-06  1.3553e-05  5.6875e-04  3.3013e-10  0.0000e+00  1.8491e-12  2.0246e-11  7.3309e-13  7.1768e-08  1.6105e-05  0:00:14   19
       V_cell  = 1.700000 (V)      ... V_open    = 1.199900 (V)
       I_anode = 1.577734 (A/cm^2) ... I_cathode = 1.577734 (A/cm^2) ... MEA_area = 1.500000 (cm^2)
  1432  3.5172e-03  8.8893e-06  1.2984e-05  5.6500e-04  3.1856e-10  0.0000e+00  1.8492e-12  4.0348e-11  6.2991e-13  6.8389e-08  1.5055e-05  0:00:13   18
       V_cell  = 1.700000 (V)      ... V_open    = 1.199900 (V)
       I_anode = 1.577738 (A/cm^2) ... I_cathode = 1.577737 (A/cm^2) ... MEA_area = 1.500000 (cm^2)
  1433  3.3426e-03  8.8955e-06  1.3551e-05  5.6089e-04  2.9827e-10  0.0000e+00  1.8491e-12  2.1329e-11  6.6007e-13  6.5971e-08  1.4263e-05  0:00:12   17
       V_cell  = 1.700000 (V)      ... V_open    = 1.199900 (V)
       I_anode = 1.577741 (A/cm^2) ... I_cathode = 1.577741 (A/cm^2) ... MEA_area = 1.500000 (cm^2)
  1434  3.3425e-03  8.9010e-06  1.4169e-05  5.6411e-04  2.9033e-10  0.0000e+00  1.8491e-12  3.7317e-11  6.3195e-13  6.3632e-08  1.4085e-05  0:00:11   16
       V_cell  = 1.700000 (V)      ... V_open    = 1.199900 (V)
       I_anode = 1.577745 (A/cm^2) ... I_cathode = 1.577744 (A/cm^2) ... MEA_area = 1.500000 (cm^2)
  1435  3.3080e-03  8.7817e-06  1.4802e-05  5.6566e-04  2.8028e-10  0.0000e+00  1.8492e-12  3.2336e-11  5.8421e-13  6.0990e-08  1.3660e-05  0:00:10   15
       V_cell  = 1.700000 (V)      ... V_open    = 1.199900 (V)
       I_anode = 1.577748 (A/cm^2) ... I_cathode = 1.577747 (A/cm^2) ... MEA_area = 1.500000 (cm^2)
  1436  3.1524e-03  8.4008e-06  1.4437e-05  5.5190e-04  2.6251e-10  0.0000e+00  1.8492e-12  2.8125e-11  5.7843e-13  5.8692e-08  1.1983e-05  0:00:09   14
       V_cell  = 1.700000 (V)      ... V_open    = 1.199900 (V)
       I_anode = 1.577751 (A/cm^2) ... I_cathode = 1.577750 (A/cm^2) ... MEA_area = 1.500000 (cm^2)

  iter  continuity  x-velocity  y-velocity  z-velocity      energy  h2o-phase-  h2-phase-1  o2-phase-1   potential  potential-  vf-phase-2     time/iter
  1437  3.5937e-03  7.7715e-06  1.4515e-05  5.5991e-04  2.5539e-10  0.0000e+00  1.8491e-12  7.2917e-12  5.1950e-13  5.6088e-08  1.3862e-05  0:00:09   13
       V_cell  = 1.700000 (V)      ... V_open    = 1.199900 (V)
       I_anode = 1.577754 (A/cm^2) ... I_cathode = 1.577753 (A/cm^2) ... MEA_area = 1.500000 (cm^2)
  1438  4.0758e-03  8.0396e-06  1.4986e-05  5.7224e-04  2.4674e-10  0.0000e+00  1.8491e-12  1.2492e-11  4.4496e-13  5.2698e-08  1.4445e-05  0:00:08   12
       V_cell  = 1.700000 (V)      ... V_open    = 1.199900 (V)
       I_anode = 1.577756 (A/cm^2) ... I_cathode = 1.577756 (A/cm^2) ... MEA_area = 1.500000 (cm^2)
  1439  3.8738e-03  8.1922e-06  1.4984e-05  5.7057e-04  2.3038e-10  0.0000e+00  1.8492e-12  4.9421e-12  4.9556e-13  5.0697e-08  1.3440e-05  0:00:07   11
       V_cell  = 1.700000 (V)      ... V_open    = 1.199900 (V)
       I_anode = 1.577759 (A/cm^2) ... I_cathode = 1.577759 (A/cm^2) ... MEA_area = 1.500000 (cm^2)
  1440  4.0298e-03  7.6179e-06  1.4822e-05  5.7591e-04  2.2431e-10  0.0000e+00  1.8491e-12  1.7541e-11  5.1396e-13  4.9255e-08  1.3945e-05  0:00:07   10
       V_cell  = 1.700000 (V)      ... V_open    = 1.199900 (V)
       I_anode = 1.577762 (A/cm^2) ... I_cathode = 1.577761 (A/cm^2) ... MEA_area = 1.500000 (cm^2)
  1441  4.3751e-03  7.4142e-06  1.4432e-05  5.8281e-04  2.1707e-10  0.0000e+00  1.8491e-12  1.0239e-11  4.4063e-13  4.7009e-08  1.5818e-05  0:00:06    9
       V_cell  = 1.700000 (V)      ... V_open    = 1.199900 (V)
       I_anode = 1.577764 (A/cm^2) ... I_cathode = 1.577764 (A/cm^2) ... MEA_area = 1.500000 (cm^2)
  1442  4.4067e-03  7.7064e-06  1.4370e-05  5.7036e-04  2.0319e-10  0.0000e+00  1.8492e-12  5.4813e-11  4.5042e-13  4.5285e-08  1.5903e-05  0:00:05    8
       V_cell  = 1.700000 (V)      ... V_open    = 1.199900 (V)
       I_anode = 1.577766 (A/cm^2) ... I_cathode = 1.577766 (A/cm^2) ... MEA_area = 1.500000 (cm^2)
  1443  4.7328e-03  8.6293e-06  1.5234e-05  5.7753e-04  1.9800e-10  0.0000e+00  1.8491e-12  1.4119e-10  4.2629e-13  4.3515e-08  1.8031e-05  0:00:05    7
       V_cell  = 1.700000 (V)      ... V_open    = 1.199900 (V)
       I_anode = 1.577769 (A/cm^2) ... I_cathode = 1.577768 (A/cm^2) ... MEA_area = 1.500000 (cm^2)
  1444  5.1499e-03  9.2641e-06  1.6349e-05  5.9538e-04  1.8682e-10  0.0000e+00  1.8491e-12  7.0957e-11  4.1367e-13  4.1863e-08  1.9716e-05  0:00:04    6
       V_cell  = 1.700000 (V)      ... V_open    = 1.199900 (V)
       I_anode = 1.577771 (A/cm^2) ... I_cathode = 1.577770 (A/cm^2) ... MEA_area = 1.500000 (cm^2)
  1445  5.1329e-03  9.6202e-06  1.6628e-05  5.9144e-04  1.8214e-10  0.0000e+00  1.8492e-12  6.9240e-11  3.9660e-13  4.0291e-08  1.9269e-05  0:00:04    5
       V_cell  = 1.700000 (V)      ... V_open    = 1.199900 (V)
       I_anode = 1.577773 (A/cm^2) ... I_cathode = 1.577773 (A/cm^2) ... MEA_area = 1.500000 (cm^2)
  1446  4.9914e-03  9.2957e-06  1.6268e-05  5.8364e-04  1.7582e-10  0.0000e+00  1.8492e-12  4.2453e-11  3.6461e-13  3.8520e-08  1.9294e-05  0:00:03    4
       V_cell  = 1.700000 (V)      ... V_open    = 1.199900 (V)
       I_anode = 1.577775 (A/cm^2) ... I_cathode = 1.577775 (A/cm^2) ... MEA_area = 1.500000 (cm^2)
  1447  4.8247e-03  9.1869e-06  1.4922e-05  5.7434e-04  1.6506e-10  0.0000e+00  1.8491e-12  3.2123e-11  3.5420e-13  3.6896e-08  1.8881e-05  0:00:02    3
       V_cell  = 1.700000 (V)      ... V_open    = 1.199900 (V)
       I_anode = 1.577777 (A/cm^2) ... I_cathode = 1.577777 (A/cm^2) ... MEA_area = 1.500000 (cm^2)

  iter  continuity  x-velocity  y-velocity  z-velocity      energy  h2o-phase-  h2-phase-1  o2-phase-1   potential  potential-  vf-phase-2     time/iter
  1448  4.7617e-03  8.9780e-06  1.3807e-05  5.7486e-04  1.6081e-10  0.0000e+00  1.8491e-12  5.1718e-11  3.3891e-13  3.5357e-08  1.9681e-05  0:00:01    2
       V_cell  = 1.700000 (V)      ... V_open    = 1.199900 (V)
       I_anode = 1.577779 (A/cm^2) ... I_cathode = 1.577778 (A/cm^2) ... MEA_area = 1.500000 (cm^2)
  1449  5.1693e-03  9.4535e-06  1.4112e-05  5.9439e-04  1.5174e-10  0.0000e+00  1.8491e-12  8.4976e-11  3.3032e-13  3.3948e-08  2.4264e-05  0:00:01    1
       V_cell  = 1.700000 (V)      ... V_open    = 1.199900 (V)
       I_anode = 1.577780 (A/cm^2) ... I_cathode = 1.577780 (A/cm^2) ... MEA_area = 1.500000 (cm^2)
  1450  5.5140e-03  1.0461e-05  1.6353e-05  6.1699e-04  1.4833e-10  0.0000e+00  1.8491e-12  1.8125e-10  3.1723e-13  3.2625e-08  2.6712e-05  0:00:00    0

Calculation complete.
(cx-gui-do cx-activate-item "Information*OK")
(cx-gui-do cx-set-list-tree-selections "NavigationPane*Frame2*Table1*List_Tree2" (list "Results|Reports|Volume Integrals"))
(cx-gui-do cx-set-list-tree-selections "NavigationPane*Frame2*Table1*List_Tree2" (list "Results|Reports|Volume Integrals"))
(cx-gui-do cx-activate-item "NavigationPane*Frame2*Table1*List_Tree2")
(cx-gui-do cx-set-list-tree-selections "NavigationPane*Frame2*Table1*List_Tree2" (list "Results|Reports|Volume Integrals"))
(cx-gui-do cx-set-toggle-button2 "Volume Integrals*ToggleBox1(Report Type)*Maximum" #t)
(cx-gui-do cx-activate-item "Volume Integrals*ToggleBox1(Report Type)*Maximum")
(cx-gui-do cx-set-list-selections "Volume Integrals*Table2*DropDownList1(Field Variable)" '( 3))
(cx-gui-do cx-activate-item "Volume Integrals*Table2*DropDownList1(Field Variable)")
(cx-gui-do cx-set-list-selections "Volume Integrals*Table3*List1(Cell Zones)" '( 0))
(cx-gui-do cx-activate-item "Volume Integrals*Table3*List1(Cell Zones)")
(cx-gui-do cx-set-list-selections "Volume Integrals*Table3*List1(Cell Zones)" '( 0 1 2 3 4 5 6 7 8))
(cx-gui-do cx-activate-item "Volume Integrals*Table3*List1(Cell Zones)")
(cx-gui-do cx-activate-item "Volume Integrals*PanelButtons*PushButton1(OK)")

                         mixture
                             Max
              Static Temperature                  [K]
-------------------------------- --------------------
                        anode_cc            383.14865
                        anode_cl            383.14859
                        anode_fc               383.15
                        anode_pl            383.14864
                      cathode_cc            383.14849
                      cathode_cl            383.14855
                      cathode_fc            383.14853
                      cathode_pl            383.14855
                             mem            383.14859
                ---------------- --------------------
                             Net               383.15
(cx-gui-do cx-activate-item "Volume Integrals*PanelButtons*PushButton2(Cancel)")
(cx-gui-do cx-set-list-tree-selections "NavigationPane*Frame2*Table1*List_Tree2" (list "Setup|Boundary Conditions|Inlet|anode_in (mass-flow-inlet, id=95)"))
(cx-gui-do cx-set-list-tree-selections "NavigationPane*Frame2*Table1*List_Tree2" (list "Setup|Boundary Conditions|Inlet|anode_in (mass-flow-inlet, id=95)"))
(cx-gui-do cx-activate-item "NavigationPane*Frame2*Table1*List_Tree2")
(cx-gui-do cx-set-list-tree-selections "NavigationPane*Frame2*Table1*List_Tree2" (list "Setup|Boundary Conditions|Inlet|anode_in (mass-flow-inlet, id=95)"))
(cx-gui-do cx-activate-item "Mass-Flow Inlet*PanelButtons*PushButton2(Cancel)")
(cx-gui-do cx-set-list-tree-selections "NavigationPane*Frame2*Table1*List_Tree2" (list "Results|Reports|Volume Integrals"))
(cx-gui-do cx-set-list-tree-selections "NavigationPane*Frame2*Table1*List_Tree2" (list "Results|Reports|Volume Integrals"))
(cx-gui-do cx-activate-item "NavigationPane*Frame2*Table1*List_Tree2")
(cx-gui-do cx-set-list-tree-selections "NavigationPane*Frame2*Table1*List_Tree2" (list "Results|Reports|Volume Integrals"))
(cx-gui-do cx-set-list-selections "Volume Integrals*Table2*DropDownList2" '( 1))
(cx-gui-do cx-activate-item "Volume Integrals*Table2*DropDownList2")
(cx-gui-do cx-activate-item "Volume Integrals*PanelButtons*PushButton1(OK)")

                         mixture
                             Max
               Total Temperature                  [K]
-------------------------------- --------------------
                        anode_cc            383.14865
                        anode_cl            383.14859
                        anode_fc            383.15004
                        anode_pl            383.14864
                      cathode_cc            383.14849
                      cathode_cl            383.14855
                      cathode_fc            383.14853
                      cathode_pl            383.14855
                             mem            383.14859
                ---------------- --------------------
                             Net            383.15004
(cx-gui-do cx-set-list-selections "Volume Integrals*Table2*DropDownList1(Field Variable)" '( 3))
(cx-gui-do cx-activate-item "Volume Integrals*Table2*DropDownList1(Field Variable)")
(cx-gui-do cx-set-toggle-button2 "Volume Integrals*ToggleBox1(Report Type)*Volume-Average" #t)
(cx-gui-do cx-activate-item "Volume Integrals*ToggleBox1(Report Type)*Volume-Average")
(cx-gui-do cx-activate-item "Volume Integrals*PanelButtons*PushButton1(OK)")

                         mixture
         Volume-Weighted Average
               Total Temperature                  [K]
-------------------------------- --------------------
                        anode_cc            383.14806
                        anode_cl            383.14736
                        anode_fc            383.14899
                        anode_pl            383.14756
                      cathode_cc            383.14739
                      cathode_cl            383.14734
                      cathode_fc            383.14723
                      cathode_pl            383.14734
                             mem            383.14735
                ---------------- --------------------
                             Net            383.14773
(cx-gui-do cx-activate-item "Volume Integrals*PanelButtons*PushButton2(Cancel)")
(cx-gui-do cx-set-list-tree-selections "NavigationPane*Frame2*Table1*List_Tree2" (list "Setup|Boundary Conditions|Inlet|anode_in (mass-flow-inlet, id=95)"))
(cx-gui-do cx-set-list-tree-selections "NavigationPane*Frame2*Table1*List_Tree2" (list "Setup|Boundary Conditions|Inlet|anode_in (mass-flow-inlet, id=95)"))
(cx-gui-do cx-activate-item "NavigationPane*Frame2*Table1*List_Tree2")
(cx-gui-do cx-set-list-tree-selections "NavigationPane*Frame2*Table1*List_Tree2" (list "Setup|Boundary Conditions|Inlet|anode_in (mass-flow-inlet, id=95)"))
(cx-gui-do cx-activate-item "Mass-Flow Inlet*PanelButtons*PushButton2(Cancel)")
(cx-gui-do cx-set-list-tree-selections "NavigationPane*Frame2*Table1*List_Tree2" (list "Results|Reports|Volume Integrals"))
(cx-gui-do cx-set-list-tree-selections "NavigationPane*Frame2*Table1*List_Tree2" (list "Results|Reports|Volume Integrals"))
(cx-gui-do cx-activate-item "NavigationPane*Frame2*Table1*List_Tree2")
(cx-gui-do cx-set-list-tree-selections "NavigationPane*Frame2*Table1*List_Tree2" (list "Results|Reports|Volume Integrals"))
(cx-gui-do cx-set-toggle-button2 "Volume Integrals*ToggleBox1(Report Type)*Maximum" #t)
(cx-gui-do cx-activate-item "Volume Integrals*ToggleBox1(Report Type)*Maximum")
(cx-gui-do cx-activate-item "Volume Integrals*PanelButtons*PushButton1(OK)")

                         mixture
                             Max
               Total Temperature                  [K]
-------------------------------- --------------------
                        anode_cc            383.14865
                        anode_cl            383.14859
                        anode_fc            383.15004
                        anode_pl            383.14864
                      cathode_cc            383.14849
                      cathode_cl            383.14855
                      cathode_fc            383.14853
                      cathode_pl            383.14855
                             mem            383.14859
                ---------------- --------------------
                             Net            383.15004
(cx-gui-do cx-activate-item "Volume Integrals*PanelButtons*PushButton2(Cancel)")
/exit y
(cx-gui-do cx-activate-item "Question*OK")

Posting ANSYS Product Improvement Program performance data 
Done.
Auto-Transcript Stop Time:  00:32:46, 04 Jun 2026 India Standard Time 
Total Transcript Time: 50 Minute 52 Second.
